
---------- Begin Simulation Statistics ----------
simSeconds                                   0.040125                       # Number of seconds simulated (Second)
simTicks                                  40124571264                       # Number of ticks simulated (Tick)
finalTick                                 40124571264                       # Number of ticks from beginning of simulation (restored from checkpoints and never reset) (Tick)
simFreq                                  1000000000000                       # The number of ticks per simulated second ((Tick/Second))
hostSeconds                                   1871.79                       # Real time elapsed on the host (Second)
hostTickRate                                 21436492                       # The number of ticks simulated per host second (ticks/s) ((Tick/Second))
hostMemory                                     886572                       # Number of bytes of host memory used (Byte)
simInsts                                    435373707                       # Number of instructions simulated (Count)
simOps                                      809194792                       # Number of ops (including micro ops) simulated (Count)
hostInstRate                                   232598                       # Simulator instruction rate (inst/s) ((Count/Second))
hostOpRate                                     432311                       # Simulator op (including micro ops) rate (op/s) ((Count/Second))
system.clk_domain.clock                          1000                       # Clock period in ticks (Tick)
system.cpu0.numCycles                       110035968                       # Number of cpu cycles simulated (Cycle)
system.cpu0.numWorkItemsStarted                     0                       # Number of work items this cpu started (Count)
system.cpu0.numWorkItemsCompleted                   0                       # Number of work items this cpu completed (Count)
system.cpu0.instsAdded                      285976977                       # Number of instructions added to the IQ (excludes non-spec) (Count)
system.cpu0.nonSpecInstsAdded                    6483                       # Number of non-speculative instructions added to the IQ (Count)
system.cpu0.instsIssued                     285427993                       # Number of instructions issued (Count)
system.cpu0.squashedInstsIssued                  4840                       # Number of squashed instructions issued (Count)
system.cpu0.squashedInstsExamined             4320487                       # Number of squashed instructions iterated over during squash; mainly for profiling (Count)
system.cpu0.squashedOperandsExamined          4605792                       # Number of squashed operands that are examined and possibly removed from graph (Count)
system.cpu0.squashedNonSpecRemoved               3363                       # Number of squashed non-spec instructions that were removed (Count)
system.cpu0.numIssuedDist::samples          109795009                       # Number of insts issued each cycle (Count)
system.cpu0.numIssuedDist::mean              2.599645                       # Number of insts issued each cycle (Count)
system.cpu0.numIssuedDist::stdev             1.632867                       # Number of insts issued each cycle (Count)
system.cpu0.numIssuedDist::underflows               0      0.00%      0.00% # Number of insts issued each cycle (Count)
system.cpu0.numIssuedDist::0                  7343513      6.69%      6.69% # Number of insts issued each cycle (Count)
system.cpu0.numIssuedDist::1                 23435436     21.34%     28.03% # Number of insts issued each cycle (Count)
system.cpu0.numIssuedDist::2                 27036486     24.62%     52.66% # Number of insts issued each cycle (Count)
system.cpu0.numIssuedDist::3                 20502794     18.67%     71.33% # Number of insts issued each cycle (Count)
system.cpu0.numIssuedDist::4                 21243625     19.35%     90.68% # Number of insts issued each cycle (Count)
system.cpu0.numIssuedDist::5                  3883817      3.54%     94.22% # Number of insts issued each cycle (Count)
system.cpu0.numIssuedDist::6                  3475776      3.17%     97.38% # Number of insts issued each cycle (Count)
system.cpu0.numIssuedDist::7                  1825534      1.66%     99.05% # Number of insts issued each cycle (Count)
system.cpu0.numIssuedDist::8                  1048028      0.95%    100.00% # Number of insts issued each cycle (Count)
system.cpu0.numIssuedDist::overflows                0      0.00%    100.00% # Number of insts issued each cycle (Count)
system.cpu0.numIssuedDist::min_value                0                       # Number of insts issued each cycle (Count)
system.cpu0.numIssuedDist::max_value                8                       # Number of insts issued each cycle (Count)
system.cpu0.numIssuedDist::total            109795009                       # Number of insts issued each cycle (Count)
system.cpu0.statFuBusy::No_OpClass                  0      0.00%      0.00% # attempts to use FU when none available (Count)
system.cpu0.statFuBusy::IntAlu                1093542     92.31%     92.31% # attempts to use FU when none available (Count)
system.cpu0.statFuBusy::IntMult                     0      0.00%     92.31% # attempts to use FU when none available (Count)
system.cpu0.statFuBusy::IntDiv                      0      0.00%     92.31% # attempts to use FU when none available (Count)
system.cpu0.statFuBusy::FloatAdd                    0      0.00%     92.31% # attempts to use FU when none available (Count)
system.cpu0.statFuBusy::FloatCmp                    0      0.00%     92.31% # attempts to use FU when none available (Count)
system.cpu0.statFuBusy::FloatCvt                    0      0.00%     92.31% # attempts to use FU when none available (Count)
system.cpu0.statFuBusy::FloatMult                   0      0.00%     92.31% # attempts to use FU when none available (Count)
system.cpu0.statFuBusy::FloatMultAcc                0      0.00%     92.31% # attempts to use FU when none available (Count)
system.cpu0.statFuBusy::FloatDiv                    0      0.00%     92.31% # attempts to use FU when none available (Count)
system.cpu0.statFuBusy::FloatMisc                   0      0.00%     92.31% # attempts to use FU when none available (Count)
system.cpu0.statFuBusy::FloatSqrt                   0      0.00%     92.31% # attempts to use FU when none available (Count)
system.cpu0.statFuBusy::SimdAdd                     1      0.00%     92.31% # attempts to use FU when none available (Count)
system.cpu0.statFuBusy::SimdAddAcc                  0      0.00%     92.31% # attempts to use FU when none available (Count)
system.cpu0.statFuBusy::SimdAlu                    57      0.00%     92.32% # attempts to use FU when none available (Count)
system.cpu0.statFuBusy::SimdCmp                     3      0.00%     92.32% # attempts to use FU when none available (Count)
system.cpu0.statFuBusy::SimdCvt                   134      0.01%     92.33% # attempts to use FU when none available (Count)
system.cpu0.statFuBusy::SimdMisc                   14      0.00%     92.33% # attempts to use FU when none available (Count)
system.cpu0.statFuBusy::SimdMult                    0      0.00%     92.33% # attempts to use FU when none available (Count)
system.cpu0.statFuBusy::SimdMultAcc                 0      0.00%     92.33% # attempts to use FU when none available (Count)
system.cpu0.statFuBusy::SimdShift                  28      0.00%     92.33% # attempts to use FU when none available (Count)
system.cpu0.statFuBusy::SimdShiftAcc                0      0.00%     92.33% # attempts to use FU when none available (Count)
system.cpu0.statFuBusy::SimdDiv                     0      0.00%     92.33% # attempts to use FU when none available (Count)
system.cpu0.statFuBusy::SimdSqrt                    0      0.00%     92.33% # attempts to use FU when none available (Count)
system.cpu0.statFuBusy::SimdFloatAdd               61      0.01%     92.34% # attempts to use FU when none available (Count)
system.cpu0.statFuBusy::SimdFloatAlu                0      0.00%     92.34% # attempts to use FU when none available (Count)
system.cpu0.statFuBusy::SimdFloatCmp                0      0.00%     92.34% # attempts to use FU when none available (Count)
system.cpu0.statFuBusy::SimdFloatCvt                0      0.00%     92.34% # attempts to use FU when none available (Count)
system.cpu0.statFuBusy::SimdFloatDiv                6      0.00%     92.34% # attempts to use FU when none available (Count)
system.cpu0.statFuBusy::SimdFloatMisc               0      0.00%     92.34% # attempts to use FU when none available (Count)
system.cpu0.statFuBusy::SimdFloatMult           81143      6.85%     99.19% # attempts to use FU when none available (Count)
system.cpu0.statFuBusy::SimdFloatMultAcc            0      0.00%     99.19% # attempts to use FU when none available (Count)
system.cpu0.statFuBusy::SimdFloatSqrt               0      0.00%     99.19% # attempts to use FU when none available (Count)
system.cpu0.statFuBusy::SimdReduceAdd               0      0.00%     99.19% # attempts to use FU when none available (Count)
system.cpu0.statFuBusy::SimdReduceAlu               0      0.00%     99.19% # attempts to use FU when none available (Count)
system.cpu0.statFuBusy::SimdReduceCmp               0      0.00%     99.19% # attempts to use FU when none available (Count)
system.cpu0.statFuBusy::SimdFloatReduceAdd            0      0.00%     99.19% # attempts to use FU when none available (Count)
system.cpu0.statFuBusy::SimdFloatReduceCmp            0      0.00%     99.19% # attempts to use FU when none available (Count)
system.cpu0.statFuBusy::SimdAes                     0      0.00%     99.19% # attempts to use FU when none available (Count)
system.cpu0.statFuBusy::SimdAesMix                  0      0.00%     99.19% # attempts to use FU when none available (Count)
system.cpu0.statFuBusy::SimdSha1Hash                0      0.00%     99.19% # attempts to use FU when none available (Count)
system.cpu0.statFuBusy::SimdSha1Hash2               0      0.00%     99.19% # attempts to use FU when none available (Count)
system.cpu0.statFuBusy::SimdSha256Hash              0      0.00%     99.19% # attempts to use FU when none available (Count)
system.cpu0.statFuBusy::SimdSha256Hash2             0      0.00%     99.19% # attempts to use FU when none available (Count)
system.cpu0.statFuBusy::SimdShaSigma2               0      0.00%     99.19% # attempts to use FU when none available (Count)
system.cpu0.statFuBusy::SimdShaSigma3               0      0.00%     99.19% # attempts to use FU when none available (Count)
system.cpu0.statFuBusy::SimdPredAlu                 0      0.00%     99.19% # attempts to use FU when none available (Count)
system.cpu0.statFuBusy::MemRead                  5238      0.44%     99.63% # attempts to use FU when none available (Count)
system.cpu0.statFuBusy::MemWrite                 4030      0.34%     99.97% # attempts to use FU when none available (Count)
system.cpu0.statFuBusy::FloatMemRead              210      0.02%     99.99% # attempts to use FU when none available (Count)
system.cpu0.statFuBusy::FloatMemWrite             154      0.01%    100.00% # attempts to use FU when none available (Count)
system.cpu0.statFuBusy::IprAccess                   0      0.00%    100.00% # attempts to use FU when none available (Count)
system.cpu0.statFuBusy::InstPrefetch                0      0.00%    100.00% # attempts to use FU when none available (Count)
system.cpu0.statIssuedInstType_0::No_OpClass      1816778      0.64%      0.64% # Number of instructions issued per FU type, per thread (Count)
system.cpu0.statIssuedInstType_0::IntAlu    187958103     65.85%     66.49% # Number of instructions issued per FU type, per thread (Count)
system.cpu0.statIssuedInstType_0::IntMult      1329023      0.47%     66.95% # Number of instructions issued per FU type, per thread (Count)
system.cpu0.statIssuedInstType_0::IntDiv     14791145      5.18%     72.14% # Number of instructions issued per FU type, per thread (Count)
system.cpu0.statIssuedInstType_0::FloatAdd     11997694      4.20%     76.34% # Number of instructions issued per FU type, per thread (Count)
system.cpu0.statIssuedInstType_0::FloatCmp            0      0.00%     76.34% # Number of instructions issued per FU type, per thread (Count)
system.cpu0.statIssuedInstType_0::FloatCvt          192      0.00%     76.34% # Number of instructions issued per FU type, per thread (Count)
system.cpu0.statIssuedInstType_0::FloatMult            0      0.00%     76.34% # Number of instructions issued per FU type, per thread (Count)
system.cpu0.statIssuedInstType_0::FloatMultAcc            0      0.00%     76.34% # Number of instructions issued per FU type, per thread (Count)
system.cpu0.statIssuedInstType_0::FloatDiv            0      0.00%     76.34% # Number of instructions issued per FU type, per thread (Count)
system.cpu0.statIssuedInstType_0::FloatMisc            0      0.00%     76.34% # Number of instructions issued per FU type, per thread (Count)
system.cpu0.statIssuedInstType_0::FloatSqrt            0      0.00%     76.34% # Number of instructions issued per FU type, per thread (Count)
system.cpu0.statIssuedInstType_0::SimdAdd         1488      0.00%     76.34% # Number of instructions issued per FU type, per thread (Count)
system.cpu0.statIssuedInstType_0::SimdAddAcc            0      0.00%     76.34% # Number of instructions issued per FU type, per thread (Count)
system.cpu0.statIssuedInstType_0::SimdAlu      1900439      0.67%     77.01% # Number of instructions issued per FU type, per thread (Count)
system.cpu0.statIssuedInstType_0::SimdCmp           34      0.00%     77.01% # Number of instructions issued per FU type, per thread (Count)
system.cpu0.statIssuedInstType_0::SimdCvt         3983      0.00%     77.01% # Number of instructions issued per FU type, per thread (Count)
system.cpu0.statIssuedInstType_0::SimdMisc       265381      0.09%     77.10% # Number of instructions issued per FU type, per thread (Count)
system.cpu0.statIssuedInstType_0::SimdMult            0      0.00%     77.10% # Number of instructions issued per FU type, per thread (Count)
system.cpu0.statIssuedInstType_0::SimdMultAcc            0      0.00%     77.10% # Number of instructions issued per FU type, per thread (Count)
system.cpu0.statIssuedInstType_0::SimdShift         1390      0.00%     77.10% # Number of instructions issued per FU type, per thread (Count)
system.cpu0.statIssuedInstType_0::SimdShiftAcc            0      0.00%     77.10% # Number of instructions issued per FU type, per thread (Count)
system.cpu0.statIssuedInstType_0::SimdDiv            0      0.00%     77.10% # Number of instructions issued per FU type, per thread (Count)
system.cpu0.statIssuedInstType_0::SimdSqrt            0      0.00%     77.10% # Number of instructions issued per FU type, per thread (Count)
system.cpu0.statIssuedInstType_0::SimdFloatAdd     10597954      3.71%     80.81% # Number of instructions issued per FU type, per thread (Count)
system.cpu0.statIssuedInstType_0::SimdFloatAlu            0      0.00%     80.81% # Number of instructions issued per FU type, per thread (Count)
system.cpu0.statIssuedInstType_0::SimdFloatCmp            0      0.00%     80.81% # Number of instructions issued per FU type, per thread (Count)
system.cpu0.statIssuedInstType_0::SimdFloatCvt       262351      0.09%     80.91% # Number of instructions issued per FU type, per thread (Count)
system.cpu0.statIssuedInstType_0::SimdFloatDiv       296136      0.10%     81.01% # Number of instructions issued per FU type, per thread (Count)
system.cpu0.statIssuedInstType_0::SimdFloatMisc            0      0.00%     81.01% # Number of instructions issued per FU type, per thread (Count)
system.cpu0.statIssuedInstType_0::SimdFloatMult     10350025      3.63%     84.64% # Number of instructions issued per FU type, per thread (Count)
system.cpu0.statIssuedInstType_0::SimdFloatMultAcc            0      0.00%     84.64% # Number of instructions issued per FU type, per thread (Count)
system.cpu0.statIssuedInstType_0::SimdFloatSqrt            1      0.00%     84.64% # Number of instructions issued per FU type, per thread (Count)
system.cpu0.statIssuedInstType_0::SimdReduceAdd            0      0.00%     84.64% # Number of instructions issued per FU type, per thread (Count)
system.cpu0.statIssuedInstType_0::SimdReduceAlu            0      0.00%     84.64% # Number of instructions issued per FU type, per thread (Count)
system.cpu0.statIssuedInstType_0::SimdReduceCmp            0      0.00%     84.64% # Number of instructions issued per FU type, per thread (Count)
system.cpu0.statIssuedInstType_0::SimdFloatReduceAdd            0      0.00%     84.64% # Number of instructions issued per FU type, per thread (Count)
system.cpu0.statIssuedInstType_0::SimdFloatReduceCmp            0      0.00%     84.64% # Number of instructions issued per FU type, per thread (Count)
system.cpu0.statIssuedInstType_0::SimdAes            0      0.00%     84.64% # Number of instructions issued per FU type, per thread (Count)
system.cpu0.statIssuedInstType_0::SimdAesMix            0      0.00%     84.64% # Number of instructions issued per FU type, per thread (Count)
system.cpu0.statIssuedInstType_0::SimdSha1Hash            0      0.00%     84.64% # Number of instructions issued per FU type, per thread (Count)
system.cpu0.statIssuedInstType_0::SimdSha1Hash2            0      0.00%     84.64% # Number of instructions issued per FU type, per thread (Count)
system.cpu0.statIssuedInstType_0::SimdSha256Hash            0      0.00%     84.64% # Number of instructions issued per FU type, per thread (Count)
system.cpu0.statIssuedInstType_0::SimdSha256Hash2            0      0.00%     84.64% # Number of instructions issued per FU type, per thread (Count)
system.cpu0.statIssuedInstType_0::SimdShaSigma2            0      0.00%     84.64% # Number of instructions issued per FU type, per thread (Count)
system.cpu0.statIssuedInstType_0::SimdShaSigma3            0      0.00%     84.64% # Number of instructions issued per FU type, per thread (Count)
system.cpu0.statIssuedInstType_0::SimdPredAlu            0      0.00%     84.64% # Number of instructions issued per FU type, per thread (Count)
system.cpu0.statIssuedInstType_0::MemRead      7629112      2.67%     87.31% # Number of instructions issued per FU type, per thread (Count)
system.cpu0.statIssuedInstType_0::MemWrite      2443922      0.86%     88.16% # Number of instructions issued per FU type, per thread (Count)
system.cpu0.statIssuedInstType_0::FloatMemRead     22884734      8.02%     96.18% # Number of instructions issued per FU type, per thread (Count)
system.cpu0.statIssuedInstType_0::FloatMemWrite     10898108      3.82%    100.00% # Number of instructions issued per FU type, per thread (Count)
system.cpu0.statIssuedInstType_0::IprAccess            0      0.00%    100.00% # Number of instructions issued per FU type, per thread (Count)
system.cpu0.statIssuedInstType_0::InstPrefetch            0      0.00%    100.00% # Number of instructions issued per FU type, per thread (Count)
system.cpu0.statIssuedInstType_0::total     285427993                       # Number of instructions issued per FU type, per thread (Count)
system.cpu0.issueRate                        2.593952                       # Inst issue rate ((Count/Cycle))
system.cpu0.fuBusy                            1184621                       # FU busy when requested (Count)
system.cpu0.fuBusyRate                       0.004150                       # FU busy rate (busy events/executed inst) ((Count/Count))
system.cpu0.intInstQueueReads               542836388                       # Number of integer instruction queue reads (Count)
system.cpu0.intInstQueueWrites              218844252                       # Number of integer instruction queue writes (Count)
system.cpu0.intInstQueueWakeupAccesses      215227827                       # Number of integer instruction queue wakeup accesses (Count)
system.cpu0.fpInstQueueReads                139004068                       # Number of floating instruction queue reads (Count)
system.cpu0.fpInstQueueWrites                71460753                       # Number of floating instruction queue writes (Count)
system.cpu0.fpInstQueueWakeupAccesses        68094038                       # Number of floating instruction queue wakeup accesses (Count)
system.cpu0.vecInstQueueReads                       0                       # Number of vector instruction queue reads (Count)
system.cpu0.vecInstQueueWrites                      0                       # Number of vector instruction queue writes (Count)
system.cpu0.vecInstQueueWakeupAccesses              0                       # Number of vector instruction queue wakeup accesses (Count)
system.cpu0.intAluAccesses                  215253136                       # Number of integer alu accesses (Count)
system.cpu0.fpAluAccesses                    69542700                       # Number of floating point alu accesses (Count)
system.cpu0.vecAluAccesses                          0                       # Number of vector alu accesses (Count)
system.cpu0.numInsts                        283992026                       # Number of executed instructions (Count)
system.cpu0.numLoadInsts                     30461869                       # Number of load instructions executed (Count)
system.cpu0.numSquashedInsts                  1435967                       # Number of squashed instructions skipped in execute (Count)
system.cpu0.numSwp                                  0                       # Number of swp insts executed (Count)
system.cpu0.numNop                                  0                       # Number of nop insts executed (Count)
system.cpu0.numRefs                          43802489                       # Number of memory reference insts executed (Count)
system.cpu0.numBranches                      18489733                       # Number of branches executed (Count)
system.cpu0.numStoreInsts                    13340620                       # Number of stores executed (Count)
system.cpu0.numRate                          2.580902                       # Inst execution rate ((Count/Cycle))
system.cpu0.timesIdled                           1417                       # Number of times that the entire CPU went into an idle state and unscheduled itself (Count)
system.cpu0.idleCycles                         240959                       # Total number of cycles that the CPU has spent unscheduled due to idling (Cycle)
system.cpu0.quiesceCycles                    10458241                       # Total number of cycles that CPU has spent quiesced or waiting for an interrupt (Cycle)
system.cpu0.committedInsts                  130115950                       # Number of Instructions Simulated (Count)
system.cpu0.committedOps                    281662967                       # Number of Ops (including micro ops) Simulated (Count)
system.cpu0.cpi                              0.845676                       # CPI: Cycles Per Instruction ((Cycle/Count))
system.cpu0.totalCpi                         0.845676                       # CPI: Total CPI of All Threads ((Cycle/Count))
system.cpu0.ipc                              1.182486                       # IPC: Instructions Per Cycle ((Count/Cycle))
system.cpu0.totalIpc                         1.182486                       # IPC: Total IPC of All Threads ((Count/Cycle))
system.cpu0.intRegfileReads                 375859976                       # Number of integer regfile reads (Count)
system.cpu0.intRegfileWrites                201455472                       # Number of integer regfile writes (Count)
system.cpu0.fpRegfileReads                   79209460                       # Number of floating regfile reads (Count)
system.cpu0.fpRegfileWrites                  57236026                       # Number of floating regfile writes (Count)
system.cpu0.ccRegfileReads                  185297323                       # number of cc regfile reads (Count)
system.cpu0.ccRegfileWrites                 104033194                       # number of cc regfile writes (Count)
system.cpu0.miscRegfileReads                 78476345                       # number of misc regfile reads (Count)
system.cpu0.miscRegfileWrites                     108                       # number of misc regfile writes (Count)
system.cpu0.MemDepUnit__0.insertedLoads      30588985                       # Number of loads inserted to the mem dependence unit. (Count)
system.cpu0.MemDepUnit__0.insertedStores     13394863                       # Number of stores inserted to the mem dependence unit. (Count)
system.cpu0.MemDepUnit__0.conflictingLoads      3318164                       # Number of conflicting loads. (Count)
system.cpu0.MemDepUnit__0.conflictingStores      2544787                       # Number of conflicting stores. (Count)
system.cpu0.MemDepUnit__1.insertedLoads             0                       # Number of loads inserted to the mem dependence unit. (Count)
system.cpu0.MemDepUnit__1.insertedStores            0                       # Number of stores inserted to the mem dependence unit. (Count)
system.cpu0.MemDepUnit__1.conflictingLoads            0                       # Number of conflicting loads. (Count)
system.cpu0.MemDepUnit__1.conflictingStores            0                       # Number of conflicting stores. (Count)
system.cpu0.MemDepUnit__2.insertedLoads             0                       # Number of loads inserted to the mem dependence unit. (Count)
system.cpu0.MemDepUnit__2.insertedStores            0                       # Number of stores inserted to the mem dependence unit. (Count)
system.cpu0.MemDepUnit__2.conflictingLoads            0                       # Number of conflicting loads. (Count)
system.cpu0.MemDepUnit__2.conflictingStores            0                       # Number of conflicting stores. (Count)
system.cpu0.MemDepUnit__3.insertedLoads             0                       # Number of loads inserted to the mem dependence unit. (Count)
system.cpu0.MemDepUnit__3.insertedStores            0                       # Number of stores inserted to the mem dependence unit. (Count)
system.cpu0.MemDepUnit__3.conflictingLoads            0                       # Number of conflicting loads. (Count)
system.cpu0.MemDepUnit__3.conflictingStores            0                       # Number of conflicting stores. (Count)
system.cpu0.branchPred.lookups               19318062                       # Number of BP lookups (Count)
system.cpu0.branchPred.condPredicted         16918958                       # Number of conditional branches predicted (Count)
system.cpu0.branchPred.condIncorrect           693242                       # Number of conditional branches incorrect (Count)
system.cpu0.branchPred.BTBLookups            13417106                       # Number of BTB lookups (Count)
system.cpu0.branchPred.BTBHits               13413617                       # Number of BTB hits (Count)
system.cpu0.branchPred.BTBHitRatio           0.999740                       # BTB Hit Ratio (Ratio)
system.cpu0.branchPred.RASUsed                 794691                       # Number of times the RAS was used to get a target. (Count)
system.cpu0.branchPred.RASIncorrect                 8                       # Number of incorrect RAS predictions. (Count)
system.cpu0.branchPred.indirectLookups         268155                       # Number of indirect predictor lookups. (Count)
system.cpu0.branchPred.indirectHits            263699                       # Number of indirect target hits. (Count)
system.cpu0.branchPred.indirectMisses            4456                       # Number of indirect misses. (Count)
system.cpu0.branchPred.indirectMispredicted          755                       # Number of mispredicted indirect branches. (Count)
system.cpu0.commit.commitSquashedInsts        4289269                       # The number of squashed insts skipped by commit (Count)
system.cpu0.commit.commitNonSpecStalls           3120                       # The number of times commit has been forced to stall to communicate backwards (Count)
system.cpu0.commit.branchMispredicts           692907                       # The number of times a branch was mispredicted (Count)
system.cpu0.commit.numCommittedDist::samples    108922788                       # Number of insts commited each cycle (Count)
system.cpu0.commit.numCommittedDist::mean     2.585896                       # Number of insts commited each cycle (Count)
system.cpu0.commit.numCommittedDist::stdev     2.473636                       # Number of insts commited each cycle (Count)
system.cpu0.commit.numCommittedDist::underflows            0      0.00%      0.00% # Number of insts commited each cycle (Count)
system.cpu0.commit.numCommittedDist::0       11700453     10.74%     10.74% # Number of insts commited each cycle (Count)
system.cpu0.commit.numCommittedDist::1       49258456     45.22%     55.97% # Number of insts commited each cycle (Count)
system.cpu0.commit.numCommittedDist::2        9581275      8.80%     64.76% # Number of insts commited each cycle (Count)
system.cpu0.commit.numCommittedDist::3        5063483      4.65%     69.41% # Number of insts commited each cycle (Count)
system.cpu0.commit.numCommittedDist::4       10032755      9.21%     78.62% # Number of insts commited each cycle (Count)
system.cpu0.commit.numCommittedDist::5        2922772      2.68%     81.30% # Number of insts commited each cycle (Count)
system.cpu0.commit.numCommittedDist::6        9424862      8.65%     89.96% # Number of insts commited each cycle (Count)
system.cpu0.commit.numCommittedDist::7         752396      0.69%     90.65% # Number of insts commited each cycle (Count)
system.cpu0.commit.numCommittedDist::8       10186336      9.35%    100.00% # Number of insts commited each cycle (Count)
system.cpu0.commit.numCommittedDist::overflows            0      0.00%    100.00% # Number of insts commited each cycle (Count)
system.cpu0.commit.numCommittedDist::min_value            0                       # Number of insts commited each cycle (Count)
system.cpu0.commit.numCommittedDist::max_value            8                       # Number of insts commited each cycle (Count)
system.cpu0.commit.numCommittedDist::total    108922788                       # Number of insts commited each cycle (Count)
system.cpu0.commit.instsCommitted           130115950                       # Number of instructions committed (Count)
system.cpu0.commit.opsCommitted             281662967                       # Number of ops (including micro ops) committed (Count)
system.cpu0.commit.memRefs                   43061434                       # Number of memory references committed (Count)
system.cpu0.commit.loads                     29735900                       # Number of loads committed (Count)
system.cpu0.commit.amos                             0                       # Number of atomic instructions committed (Count)
system.cpu0.commit.membars                       2008                       # Number of memory barriers committed (Count)
system.cpu0.commit.branches                  18416089                       # Number of branches committed (Count)
system.cpu0.commit.vectorInstructions               0                       # Number of committed Vector instructions. (Count)
system.cpu0.commit.floating                  67929539                       # Number of committed floating point instructions. (Count)
system.cpu0.commit.integer                  243172498                       # Number of committed integer instructions. (Count)
system.cpu0.commit.functionCalls               791709                       # Number of function calls committed. (Count)
system.cpu0.commit.committedInstType_0::No_OpClass      1760036      0.62%      0.62% # Class of committed instruction (Count)
system.cpu0.commit.committedInstType_0::IntAlu    185853845     65.98%     66.61% # Class of committed instruction (Count)
system.cpu0.commit.committedInstType_0::IntMult      1326116      0.47%     67.08% # Class of committed instruction (Count)
system.cpu0.commit.committedInstType_0::IntDiv     14786539      5.25%     72.33% # Class of committed instruction (Count)
system.cpu0.commit.committedInstType_0::FloatAdd     11263650      4.00%     76.33% # Class of committed instruction (Count)
system.cpu0.commit.committedInstType_0::FloatCmp            0      0.00%     76.33% # Class of committed instruction (Count)
system.cpu0.commit.committedInstType_0::FloatCvt          192      0.00%     76.33% # Class of committed instruction (Count)
system.cpu0.commit.committedInstType_0::FloatMult            0      0.00%     76.33% # Class of committed instruction (Count)
system.cpu0.commit.committedInstType_0::FloatMultAcc            0      0.00%     76.33% # Class of committed instruction (Count)
system.cpu0.commit.committedInstType_0::FloatDiv            0      0.00%     76.33% # Class of committed instruction (Count)
system.cpu0.commit.committedInstType_0::FloatMisc            0      0.00%     76.33% # Class of committed instruction (Count)
system.cpu0.commit.committedInstType_0::FloatSqrt            0      0.00%     76.33% # Class of committed instruction (Count)
system.cpu0.commit.committedInstType_0::SimdAdd          976      0.00%     76.33% # Class of committed instruction (Count)
system.cpu0.commit.committedInstType_0::SimdAddAcc            0      0.00%     76.33% # Class of committed instruction (Count)
system.cpu0.commit.committedInstType_0::SimdAlu      1853846      0.66%     76.99% # Class of committed instruction (Count)
system.cpu0.commit.committedInstType_0::SimdCmp           34      0.00%     76.99% # Class of committed instruction (Count)
system.cpu0.commit.committedInstType_0::SimdCvt         2410      0.00%     76.99% # Class of committed instruction (Count)
system.cpu0.commit.committedInstType_0::SimdMisc       264621      0.09%     77.08% # Class of committed instruction (Count)
system.cpu0.commit.committedInstType_0::SimdMult            0      0.00%     77.08% # Class of committed instruction (Count)
system.cpu0.commit.committedInstType_0::SimdMultAcc            0      0.00%     77.08% # Class of committed instruction (Count)
system.cpu0.commit.committedInstType_0::SimdShift          549      0.00%     77.08% # Class of committed instruction (Count)
system.cpu0.commit.committedInstType_0::SimdShiftAcc            0      0.00%     77.08% # Class of committed instruction (Count)
system.cpu0.commit.committedInstType_0::SimdDiv            0      0.00%     77.08% # Class of committed instruction (Count)
system.cpu0.commit.committedInstType_0::SimdSqrt            0      0.00%     77.08% # Class of committed instruction (Count)
system.cpu0.commit.committedInstType_0::SimdFloatAdd     10596160      3.76%     80.84% # Class of committed instruction (Count)
system.cpu0.commit.committedInstType_0::SimdFloatAlu            0      0.00%     80.84% # Class of committed instruction (Count)
system.cpu0.commit.committedInstType_0::SimdFloatCmp            0      0.00%     80.84% # Class of committed instruction (Count)
system.cpu0.commit.committedInstType_0::SimdFloatCvt       262286      0.09%     80.94% # Class of committed instruction (Count)
system.cpu0.commit.committedInstType_0::SimdFloatDiv       295872      0.11%     81.04% # Class of committed instruction (Count)
system.cpu0.commit.committedInstType_0::SimdFloatMisc            0      0.00%     81.04% # Class of committed instruction (Count)
system.cpu0.commit.committedInstType_0::SimdFloatMult     10334400      3.67%     84.71% # Class of committed instruction (Count)
system.cpu0.commit.committedInstType_0::SimdFloatMultAcc            0      0.00%     84.71% # Class of committed instruction (Count)
system.cpu0.commit.committedInstType_0::SimdFloatSqrt            1      0.00%     84.71% # Class of committed instruction (Count)
system.cpu0.commit.committedInstType_0::SimdReduceAdd            0      0.00%     84.71% # Class of committed instruction (Count)
system.cpu0.commit.committedInstType_0::SimdReduceAlu            0      0.00%     84.71% # Class of committed instruction (Count)
system.cpu0.commit.committedInstType_0::SimdReduceCmp            0      0.00%     84.71% # Class of committed instruction (Count)
system.cpu0.commit.committedInstType_0::SimdFloatReduceAdd            0      0.00%     84.71% # Class of committed instruction (Count)
system.cpu0.commit.committedInstType_0::SimdFloatReduceCmp            0      0.00%     84.71% # Class of committed instruction (Count)
system.cpu0.commit.committedInstType_0::SimdAes            0      0.00%     84.71% # Class of committed instruction (Count)
system.cpu0.commit.committedInstType_0::SimdAesMix            0      0.00%     84.71% # Class of committed instruction (Count)
system.cpu0.commit.committedInstType_0::SimdSha1Hash            0      0.00%     84.71% # Class of committed instruction (Count)
system.cpu0.commit.committedInstType_0::SimdSha1Hash2            0      0.00%     84.71% # Class of committed instruction (Count)
system.cpu0.commit.committedInstType_0::SimdSha256Hash            0      0.00%     84.71% # Class of committed instruction (Count)
system.cpu0.commit.committedInstType_0::SimdSha256Hash2            0      0.00%     84.71% # Class of committed instruction (Count)
system.cpu0.commit.committedInstType_0::SimdShaSigma2            0      0.00%     84.71% # Class of committed instruction (Count)
system.cpu0.commit.committedInstType_0::SimdShaSigma3            0      0.00%     84.71% # Class of committed instruction (Count)
system.cpu0.commit.committedInstType_0::SimdPredAlu            0      0.00%     84.71% # Class of committed instruction (Count)
system.cpu0.commit.committedInstType_0::MemRead      7577381      2.69%     87.40% # Class of committed instruction (Count)
system.cpu0.commit.committedInstType_0::MemWrite      2430231      0.86%     88.26% # Class of committed instruction (Count)
system.cpu0.commit.committedInstType_0::FloatMemRead     22158519      7.87%     96.13% # Class of committed instruction (Count)
system.cpu0.commit.committedInstType_0::FloatMemWrite     10895303      3.87%    100.00% # Class of committed instruction (Count)
system.cpu0.commit.committedInstType_0::IprAccess            0      0.00%    100.00% # Class of committed instruction (Count)
system.cpu0.commit.committedInstType_0::InstPrefetch            0      0.00%    100.00% # Class of committed instruction (Count)
system.cpu0.commit.committedInstType_0::total    281662967                       # Class of committed instruction (Count)
system.cpu0.commit.commitEligibleSamples     10186336                       # number cycles where commit BW limit reached (Cycle)
system.cpu0.dcache.demandHits::cpu0.data     41068781                       # number of demand (read+write) hits (Count)
system.cpu0.dcache.demandHits::total         41068781                       # number of demand (read+write) hits (Count)
system.cpu0.dcache.overallHits::cpu0.data     41068781                       # number of overall hits (Count)
system.cpu0.dcache.overallHits::total        41068781                       # number of overall hits (Count)
system.cpu0.dcache.demandMisses::cpu0.data       277301                       # number of demand (read+write) misses (Count)
system.cpu0.dcache.demandMisses::total         277301                       # number of demand (read+write) misses (Count)
system.cpu0.dcache.overallMisses::cpu0.data       277301                       # number of overall misses (Count)
system.cpu0.dcache.overallMisses::total        277301                       # number of overall misses (Count)
system.cpu0.dcache.demandMissLatency::cpu0.data   6286322378                       # number of demand (read+write) miss ticks (Tick)
system.cpu0.dcache.demandMissLatency::total   6286322378                       # number of demand (read+write) miss ticks (Tick)
system.cpu0.dcache.overallMissLatency::cpu0.data   6286322378                       # number of overall miss ticks (Tick)
system.cpu0.dcache.overallMissLatency::total   6286322378                       # number of overall miss ticks (Tick)
system.cpu0.dcache.demandAccesses::cpu0.data     41346082                       # number of demand (read+write) accesses (Count)
system.cpu0.dcache.demandAccesses::total     41346082                       # number of demand (read+write) accesses (Count)
system.cpu0.dcache.overallAccesses::cpu0.data     41346082                       # number of overall (read+write) accesses (Count)
system.cpu0.dcache.overallAccesses::total     41346082                       # number of overall (read+write) accesses (Count)
system.cpu0.dcache.demandMissRate::cpu0.data     0.006707                       # miss rate for demand accesses (Ratio)
system.cpu0.dcache.demandMissRate::total     0.006707                       # miss rate for demand accesses (Ratio)
system.cpu0.dcache.overallMissRate::cpu0.data     0.006707                       # miss rate for overall accesses (Ratio)
system.cpu0.dcache.overallMissRate::total     0.006707                       # miss rate for overall accesses (Ratio)
system.cpu0.dcache.demandAvgMissLatency::cpu0.data 22669.670784                       # average overall miss latency in ticks ((Tick/Count))
system.cpu0.dcache.demandAvgMissLatency::total 22669.670784                       # average overall miss latency in ticks ((Tick/Count))
system.cpu0.dcache.overallAvgMissLatency::cpu0.data 22669.670784                       # average overall miss latency ((Tick/Count))
system.cpu0.dcache.overallAvgMissLatency::total 22669.670784                       # average overall miss latency ((Tick/Count))
system.cpu0.dcache.blockedCycles::no_mshrs        32407                       # number of cycles access was blocked (Cycle)
system.cpu0.dcache.blockedCycles::no_targets           54                       # number of cycles access was blocked (Cycle)
system.cpu0.dcache.blockedCauses::no_mshrs          643                       # number of times access was blocked (Count)
system.cpu0.dcache.blockedCauses::no_targets            3                       # number of times access was blocked (Count)
system.cpu0.dcache.avgBlocked::no_mshrs     50.399689                       # average number of cycles each access was blocked ((Cycle/Count))
system.cpu0.dcache.avgBlocked::no_targets           18                       # average number of cycles each access was blocked ((Cycle/Count))
system.cpu0.dcache.writebacks::writebacks       154071                       # number of writebacks (Count)
system.cpu0.dcache.writebacks::total           154071                       # number of writebacks (Count)
system.cpu0.dcache.demandMshrHits::cpu0.data        27201                       # number of demand (read+write) MSHR hits (Count)
system.cpu0.dcache.demandMshrHits::total        27201                       # number of demand (read+write) MSHR hits (Count)
system.cpu0.dcache.overallMshrHits::cpu0.data        27201                       # number of overall MSHR hits (Count)
system.cpu0.dcache.overallMshrHits::total        27201                       # number of overall MSHR hits (Count)
system.cpu0.dcache.demandMshrMisses::cpu0.data       250100                       # number of demand (read+write) MSHR misses (Count)
system.cpu0.dcache.demandMshrMisses::total       250100                       # number of demand (read+write) MSHR misses (Count)
system.cpu0.dcache.overallMshrMisses::cpu0.data       250100                       # number of overall MSHR misses (Count)
system.cpu0.dcache.overallMshrMisses::total       250100                       # number of overall MSHR misses (Count)
system.cpu0.dcache.demandMshrMissLatency::cpu0.data   5264887502                       # number of demand (read+write) MSHR miss ticks (Tick)
system.cpu0.dcache.demandMshrMissLatency::total   5264887502                       # number of demand (read+write) MSHR miss ticks (Tick)
system.cpu0.dcache.overallMshrMissLatency::cpu0.data   5264887502                       # number of overall MSHR miss ticks (Tick)
system.cpu0.dcache.overallMshrMissLatency::total   5264887502                       # number of overall MSHR miss ticks (Tick)
system.cpu0.dcache.demandMshrMissRate::cpu0.data     0.006049                       # mshr miss ratio for demand accesses (Ratio)
system.cpu0.dcache.demandMshrMissRate::total     0.006049                       # mshr miss ratio for demand accesses (Ratio)
system.cpu0.dcache.overallMshrMissRate::cpu0.data     0.006049                       # mshr miss ratio for overall accesses (Ratio)
system.cpu0.dcache.overallMshrMissRate::total     0.006049                       # mshr miss ratio for overall accesses (Ratio)
system.cpu0.dcache.demandAvgMshrMissLatency::cpu0.data 21051.129556                       # average overall mshr miss latency ((Tick/Count))
system.cpu0.dcache.demandAvgMshrMissLatency::total 21051.129556                       # average overall mshr miss latency ((Tick/Count))
system.cpu0.dcache.overallAvgMshrMissLatency::cpu0.data 21051.129556                       # average overall mshr miss latency ((Tick/Count))
system.cpu0.dcache.overallAvgMshrMissLatency::total 21051.129556                       # average overall mshr miss latency ((Tick/Count))
system.cpu0.dcache.replacements                241086                       # number of replacements (Count)
system.cpu0.dcache.LockedRMWReadReq.hits::cpu0.data          602                       # number of LockedRMWReadReq hits (Count)
system.cpu0.dcache.LockedRMWReadReq.hits::total          602                       # number of LockedRMWReadReq hits (Count)
system.cpu0.dcache.LockedRMWReadReq.misses::cpu0.data          402                       # number of LockedRMWReadReq misses (Count)
system.cpu0.dcache.LockedRMWReadReq.misses::total          402                       # number of LockedRMWReadReq misses (Count)
system.cpu0.dcache.LockedRMWReadReq.missLatency::cpu0.data     12032955                       # number of LockedRMWReadReq miss ticks (Tick)
system.cpu0.dcache.LockedRMWReadReq.missLatency::total     12032955                       # number of LockedRMWReadReq miss ticks (Tick)
system.cpu0.dcache.LockedRMWReadReq.accesses::cpu0.data         1004                       # number of LockedRMWReadReq accesses(hits+misses) (Count)
system.cpu0.dcache.LockedRMWReadReq.accesses::total         1004                       # number of LockedRMWReadReq accesses(hits+misses) (Count)
system.cpu0.dcache.LockedRMWReadReq.missRate::cpu0.data     0.400398                       # miss rate for LockedRMWReadReq accesses (Ratio)
system.cpu0.dcache.LockedRMWReadReq.missRate::total     0.400398                       # miss rate for LockedRMWReadReq accesses (Ratio)
system.cpu0.dcache.LockedRMWReadReq.avgMissLatency::cpu0.data 29932.723881                       # average LockedRMWReadReq miss latency ((Tick/Count))
system.cpu0.dcache.LockedRMWReadReq.avgMissLatency::total 29932.723881                       # average LockedRMWReadReq miss latency ((Tick/Count))
system.cpu0.dcache.LockedRMWReadReq.mshrMisses::cpu0.data          402                       # number of LockedRMWReadReq MSHR misses (Count)
system.cpu0.dcache.LockedRMWReadReq.mshrMisses::total          402                       # number of LockedRMWReadReq MSHR misses (Count)
system.cpu0.dcache.LockedRMWReadReq.mshrMissLatency::cpu0.data     26390583                       # number of LockedRMWReadReq MSHR miss ticks (Tick)
system.cpu0.dcache.LockedRMWReadReq.mshrMissLatency::total     26390583                       # number of LockedRMWReadReq MSHR miss ticks (Tick)
system.cpu0.dcache.LockedRMWReadReq.mshrMissRate::cpu0.data     0.400398                       # mshr miss rate for LockedRMWReadReq accesses (Ratio)
system.cpu0.dcache.LockedRMWReadReq.mshrMissRate::total     0.400398                       # mshr miss rate for LockedRMWReadReq accesses (Ratio)
system.cpu0.dcache.LockedRMWReadReq.avgMshrMissLatency::cpu0.data 65648.216418                       # average LockedRMWReadReq mshr miss latency ((Tick/Count))
system.cpu0.dcache.LockedRMWReadReq.avgMshrMissLatency::total 65648.216418                       # average LockedRMWReadReq mshr miss latency ((Tick/Count))
system.cpu0.dcache.LockedRMWWriteReq.hits::cpu0.data         1004                       # number of LockedRMWWriteReq hits (Count)
system.cpu0.dcache.LockedRMWWriteReq.hits::total         1004                       # number of LockedRMWWriteReq hits (Count)
system.cpu0.dcache.LockedRMWWriteReq.accesses::cpu0.data         1004                       # number of LockedRMWWriteReq accesses(hits+misses) (Count)
system.cpu0.dcache.LockedRMWWriteReq.accesses::total         1004                       # number of LockedRMWWriteReq accesses(hits+misses) (Count)
system.cpu0.dcache.ReadReq.hits::cpu0.data     27785661                       # number of ReadReq hits (Count)
system.cpu0.dcache.ReadReq.hits::total       27785661                       # number of ReadReq hits (Count)
system.cpu0.dcache.ReadReq.misses::cpu0.data       235880                       # number of ReadReq misses (Count)
system.cpu0.dcache.ReadReq.misses::total       235880                       # number of ReadReq misses (Count)
system.cpu0.dcache.ReadReq.missLatency::cpu0.data   3196164969                       # number of ReadReq miss ticks (Tick)
system.cpu0.dcache.ReadReq.missLatency::total   3196164969                       # number of ReadReq miss ticks (Tick)
system.cpu0.dcache.ReadReq.accesses::cpu0.data     28021541                       # number of ReadReq accesses(hits+misses) (Count)
system.cpu0.dcache.ReadReq.accesses::total     28021541                       # number of ReadReq accesses(hits+misses) (Count)
system.cpu0.dcache.ReadReq.missRate::cpu0.data     0.008418                       # miss rate for ReadReq accesses (Ratio)
system.cpu0.dcache.ReadReq.missRate::total     0.008418                       # miss rate for ReadReq accesses (Ratio)
system.cpu0.dcache.ReadReq.avgMissLatency::cpu0.data 13549.961714                       # average ReadReq miss latency ((Tick/Count))
system.cpu0.dcache.ReadReq.avgMissLatency::total 13549.961714                       # average ReadReq miss latency ((Tick/Count))
system.cpu0.dcache.ReadReq.mshrHits::cpu0.data        27195                       # number of ReadReq MSHR hits (Count)
system.cpu0.dcache.ReadReq.mshrHits::total        27195                       # number of ReadReq MSHR hits (Count)
system.cpu0.dcache.ReadReq.mshrMisses::cpu0.data       208685                       # number of ReadReq MSHR misses (Count)
system.cpu0.dcache.ReadReq.mshrMisses::total       208685                       # number of ReadReq MSHR misses (Count)
system.cpu0.dcache.ReadReq.mshrMissLatency::cpu0.data   2202628833                       # number of ReadReq MSHR miss ticks (Tick)
system.cpu0.dcache.ReadReq.mshrMissLatency::total   2202628833                       # number of ReadReq MSHR miss ticks (Tick)
system.cpu0.dcache.ReadReq.mshrMissRate::cpu0.data     0.007447                       # mshr miss rate for ReadReq accesses (Ratio)
system.cpu0.dcache.ReadReq.mshrMissRate::total     0.007447                       # mshr miss rate for ReadReq accesses (Ratio)
system.cpu0.dcache.ReadReq.avgMshrMissLatency::cpu0.data 10554.801893                       # average ReadReq mshr miss latency ((Tick/Count))
system.cpu0.dcache.ReadReq.avgMshrMissLatency::total 10554.801893                       # average ReadReq mshr miss latency ((Tick/Count))
system.cpu0.dcache.WriteReq.hits::cpu0.data     13283120                       # number of WriteReq hits (Count)
system.cpu0.dcache.WriteReq.hits::total      13283120                       # number of WriteReq hits (Count)
system.cpu0.dcache.WriteReq.misses::cpu0.data        41421                       # number of WriteReq misses (Count)
system.cpu0.dcache.WriteReq.misses::total        41421                       # number of WriteReq misses (Count)
system.cpu0.dcache.WriteReq.missLatency::cpu0.data   3090157409                       # number of WriteReq miss ticks (Tick)
system.cpu0.dcache.WriteReq.missLatency::total   3090157409                       # number of WriteReq miss ticks (Tick)
system.cpu0.dcache.WriteReq.accesses::cpu0.data     13324541                       # number of WriteReq accesses(hits+misses) (Count)
system.cpu0.dcache.WriteReq.accesses::total     13324541                       # number of WriteReq accesses(hits+misses) (Count)
system.cpu0.dcache.WriteReq.missRate::cpu0.data     0.003109                       # miss rate for WriteReq accesses (Ratio)
system.cpu0.dcache.WriteReq.missRate::total     0.003109                       # miss rate for WriteReq accesses (Ratio)
system.cpu0.dcache.WriteReq.avgMissLatency::cpu0.data 74603.640883                       # average WriteReq miss latency ((Tick/Count))
system.cpu0.dcache.WriteReq.avgMissLatency::total 74603.640883                       # average WriteReq miss latency ((Tick/Count))
system.cpu0.dcache.WriteReq.mshrHits::cpu0.data            6                       # number of WriteReq MSHR hits (Count)
system.cpu0.dcache.WriteReq.mshrHits::total            6                       # number of WriteReq MSHR hits (Count)
system.cpu0.dcache.WriteReq.mshrMisses::cpu0.data        41415                       # number of WriteReq MSHR misses (Count)
system.cpu0.dcache.WriteReq.mshrMisses::total        41415                       # number of WriteReq MSHR misses (Count)
system.cpu0.dcache.WriteReq.mshrMissLatency::cpu0.data   3062258669                       # number of WriteReq MSHR miss ticks (Tick)
system.cpu0.dcache.WriteReq.mshrMissLatency::total   3062258669                       # number of WriteReq MSHR miss ticks (Tick)
system.cpu0.dcache.WriteReq.mshrMissRate::cpu0.data     0.003108                       # mshr miss rate for WriteReq accesses (Ratio)
system.cpu0.dcache.WriteReq.mshrMissRate::total     0.003108                       # mshr miss rate for WriteReq accesses (Ratio)
system.cpu0.dcache.WriteReq.avgMshrMissLatency::cpu0.data 73940.810552                       # average WriteReq mshr miss latency ((Tick/Count))
system.cpu0.dcache.WriteReq.avgMshrMissLatency::total 73940.810552                       # average WriteReq mshr miss latency ((Tick/Count))
system.cpu0.dcache.power_state.pwrStateResidencyTicks::UNDEFINED  40124571264                       # Cumulative time (in ticks) in various power states (Tick)
system.cpu0.dcache.tags.tagsInUse          511.413632                       # Average ticks per tags in use ((Tick/Count))
system.cpu0.dcache.tags.totalRefs            41325158                       # Total number of references to valid blocks. (Count)
system.cpu0.dcache.tags.sampledRefs            242874                       # Sample count of references to valid blocks. (Count)
system.cpu0.dcache.tags.avgRefs            170.150605                       # Average number of references to valid blocks. ((Count/Count))
system.cpu0.dcache.tags.warmupTick             189144                       # The tick when the warmup percentage was hit. (Tick)
system.cpu0.dcache.tags.occupancies::cpu0.data   511.413632                       # Average occupied blocks per tick, per requestor ((Count/Tick))
system.cpu0.dcache.tags.avgOccs::cpu0.data     0.998855                       # Average percentage of cache occupancy ((Ratio/Tick))
system.cpu0.dcache.tags.avgOccs::total       0.998855                       # Average percentage of cache occupancy ((Ratio/Tick))
system.cpu0.dcache.tags.occupanciesTaskId::1024          506                       # Occupied blocks per task id (Count)
system.cpu0.dcache.tags.ageTaskId_1024::0           93                       # Occupied blocks per task id, per block age (Count)
system.cpu0.dcache.tags.ageTaskId_1024::1          161                       # Occupied blocks per task id, per block age (Count)
system.cpu0.dcache.tags.ageTaskId_1024::2          244                       # Occupied blocks per task id, per block age (Count)
system.cpu0.dcache.tags.ageTaskId_1024::4            8                       # Occupied blocks per task id, per block age (Count)
system.cpu0.dcache.tags.ratioOccsTaskId::1024     0.988281                       # Ratio of occupied blocks and all blocks, per task id (Ratio)
system.cpu0.dcache.tags.tagAccesses         331027594                       # Number of tag accesses (Count)
system.cpu0.dcache.tags.dataAccesses        331027594                       # Number of data accesses (Count)
system.cpu0.dcache.tags.power_state.pwrStateResidencyTicks::UNDEFINED  40124571264                       # Cumulative time (in ticks) in various power states (Tick)
system.cpu0.decode.idleCycles                28051358                       # Number of cycles decode is idle (Cycle)
system.cpu0.decode.blockedCycles             31107799                       # Number of cycles decode is blocked (Cycle)
system.cpu0.decode.runCycles                 37771481                       # Number of cycles decode is running (Cycle)
system.cpu0.decode.unblockCycles             12169429                       # Number of cycles decode is unblocking (Cycle)
system.cpu0.decode.squashCycles                694942                       # Number of cycles decode is squashing (Cycle)
system.cpu0.decode.branchResolved            13345210                       # Number of times decode resolved a branch (Count)
system.cpu0.decode.branchMispred                  977                       # Number of times decode detected a branch misprediction (Count)
system.cpu0.decode.decodedInsts             292885998                       # Number of instructions handled by decode (Count)
system.cpu0.decode.squashedInsts                 4671                       # Number of squashed instructions handled by decode (Count)
system.cpu0.dtb_walker_cache.blockedCycles::no_mshrs            0                       # number of cycles access was blocked (Cycle)
system.cpu0.dtb_walker_cache.blockedCycles::no_targets            0                       # number of cycles access was blocked (Cycle)
system.cpu0.dtb_walker_cache.blockedCauses::no_mshrs            0                       # number of times access was blocked (Count)
system.cpu0.dtb_walker_cache.blockedCauses::no_targets            0                       # number of times access was blocked (Count)
system.cpu0.dtb_walker_cache.avgBlocked::no_mshrs          nan                       # average number of cycles each access was blocked ((Cycle/Count))
system.cpu0.dtb_walker_cache.avgBlocked::no_targets          nan                       # average number of cycles each access was blocked ((Cycle/Count))
system.cpu0.dtb_walker_cache.replacements            0                       # number of replacements (Count)
system.cpu0.dtb_walker_cache.power_state.pwrStateResidencyTicks::UNDEFINED  40124571264                       # Cumulative time (in ticks) in various power states (Tick)
system.cpu0.dtb_walker_cache.tags.tagsInUse            0                       # Average ticks per tags in use ((Tick/Count))
system.cpu0.dtb_walker_cache.tags.totalRefs            0                       # Total number of references to valid blocks. (Count)
system.cpu0.dtb_walker_cache.tags.sampledRefs            0                       # Sample count of references to valid blocks. (Count)
system.cpu0.dtb_walker_cache.tags.avgRefs          nan                       # Average number of references to valid blocks. ((Count/Count))
system.cpu0.dtb_walker_cache.tags.warmupTick            0                       # The tick when the warmup percentage was hit. (Tick)
system.cpu0.dtb_walker_cache.tags.tagAccesses            0                       # Number of tag accesses (Count)
system.cpu0.dtb_walker_cache.tags.dataAccesses            0                       # Number of data accesses (Count)
system.cpu0.dtb_walker_cache.tags.power_state.pwrStateResidencyTicks::UNDEFINED  40124571264                       # Cumulative time (in ticks) in various power states (Tick)
system.cpu0.fetch.icacheStallCycles          28361989                       # Number of cycles fetch is stalled on an Icache miss (Cycle)
system.cpu0.fetch.insts                     138467784                       # Number of instructions fetch has processed (Count)
system.cpu0.fetch.branches                   19318062                       # Number of branches that fetch encountered (Count)
system.cpu0.fetch.predictedBranches          14472007                       # Number of branches that fetch has predicted taken (Count)
system.cpu0.fetch.cycles                     80731881                       # Number of cycles fetch has run and was not squashing or blocked (Cycle)
system.cpu0.fetch.squashCycles                1391790                       # Number of cycles fetch has spent squashing (Cycle)
system.cpu0.fetch.miscStallCycles                 661                       # Number of cycles fetch has spent waiting on interrupts, or bad addresses, or out of MSHRs (Cycle)
system.cpu0.fetch.pendingTrapStallCycles         4564                       # Number of stall cycles due to pending traps (Cycle)
system.cpu0.fetch.icacheWaitRetryStallCycles           19                       # Number of stall cycles due to full MSHR (Cycle)
system.cpu0.fetch.cacheLines                 28260005                       # Number of cache lines fetched (Count)
system.cpu0.fetch.icacheSquashes               639102                       # Number of outstanding Icache misses that were squashed (Count)
system.cpu0.fetch.nisnDist::samples         109795009                       # Number of instructions fetched each cycle (Total) (Count)
system.cpu0.fetch.nisnDist::mean             2.702123                       # Number of instructions fetched each cycle (Total) (Count)
system.cpu0.fetch.nisnDist::stdev            3.285652                       # Number of instructions fetched each cycle (Total) (Count)
system.cpu0.fetch.nisnDist::underflows              0      0.00%      0.00% # Number of instructions fetched each cycle (Total) (Count)
system.cpu0.fetch.nisnDist::0                55844026     50.86%     50.86% # Number of instructions fetched each cycle (Total) (Count)
system.cpu0.fetch.nisnDist::1                 1049525      0.96%     51.82% # Number of instructions fetched each cycle (Total) (Count)
system.cpu0.fetch.nisnDist::2                11281096     10.27%     62.09% # Number of instructions fetched each cycle (Total) (Count)
system.cpu0.fetch.nisnDist::3                  941251      0.86%     62.95% # Number of instructions fetched each cycle (Total) (Count)
system.cpu0.fetch.nisnDist::4                12643925     11.52%     74.47% # Number of instructions fetched each cycle (Total) (Count)
system.cpu0.fetch.nisnDist::5                  603896      0.55%     75.02% # Number of instructions fetched each cycle (Total) (Count)
system.cpu0.fetch.nisnDist::6                  664875      0.61%     75.62% # Number of instructions fetched each cycle (Total) (Count)
system.cpu0.fetch.nisnDist::7                 1471586      1.34%     76.96% # Number of instructions fetched each cycle (Total) (Count)
system.cpu0.fetch.nisnDist::8                25294829     23.04%    100.00% # Number of instructions fetched each cycle (Total) (Count)
system.cpu0.fetch.nisnDist::overflows               0      0.00%    100.00% # Number of instructions fetched each cycle (Total) (Count)
system.cpu0.fetch.nisnDist::min_value               0                       # Number of instructions fetched each cycle (Total) (Count)
system.cpu0.fetch.nisnDist::max_value               8                       # Number of instructions fetched each cycle (Total) (Count)
system.cpu0.fetch.nisnDist::total           109795009                       # Number of instructions fetched each cycle (Total) (Count)
system.cpu0.fetch.branchRate                 0.175561                       # Number of branch fetches per cycle (Ratio)
system.cpu0.fetch.rate                       1.258387                       # Number of inst fetches per cycle ((Count/Cycle))
system.cpu0.icache.demandHits::cpu0.inst     28257347                       # number of demand (read+write) hits (Count)
system.cpu0.icache.demandHits::total         28257347                       # number of demand (read+write) hits (Count)
system.cpu0.icache.overallHits::cpu0.inst     28257347                       # number of overall hits (Count)
system.cpu0.icache.overallHits::total        28257347                       # number of overall hits (Count)
system.cpu0.icache.demandMisses::cpu0.inst         2658                       # number of demand (read+write) misses (Count)
system.cpu0.icache.demandMisses::total           2658                       # number of demand (read+write) misses (Count)
system.cpu0.icache.overallMisses::cpu0.inst         2658                       # number of overall misses (Count)
system.cpu0.icache.overallMisses::total          2658                       # number of overall misses (Count)
system.cpu0.icache.demandMissLatency::cpu0.inst    203950511                       # number of demand (read+write) miss ticks (Tick)
system.cpu0.icache.demandMissLatency::total    203950511                       # number of demand (read+write) miss ticks (Tick)
system.cpu0.icache.overallMissLatency::cpu0.inst    203950511                       # number of overall miss ticks (Tick)
system.cpu0.icache.overallMissLatency::total    203950511                       # number of overall miss ticks (Tick)
system.cpu0.icache.demandAccesses::cpu0.inst     28260005                       # number of demand (read+write) accesses (Count)
system.cpu0.icache.demandAccesses::total     28260005                       # number of demand (read+write) accesses (Count)
system.cpu0.icache.overallAccesses::cpu0.inst     28260005                       # number of overall (read+write) accesses (Count)
system.cpu0.icache.overallAccesses::total     28260005                       # number of overall (read+write) accesses (Count)
system.cpu0.icache.demandMissRate::cpu0.inst     0.000094                       # miss rate for demand accesses (Ratio)
system.cpu0.icache.demandMissRate::total     0.000094                       # miss rate for demand accesses (Ratio)
system.cpu0.icache.overallMissRate::cpu0.inst     0.000094                       # miss rate for overall accesses (Ratio)
system.cpu0.icache.overallMissRate::total     0.000094                       # miss rate for overall accesses (Ratio)
system.cpu0.icache.demandAvgMissLatency::cpu0.inst 76730.816780                       # average overall miss latency in ticks ((Tick/Count))
system.cpu0.icache.demandAvgMissLatency::total 76730.816780                       # average overall miss latency in ticks ((Tick/Count))
system.cpu0.icache.overallAvgMissLatency::cpu0.inst 76730.816780                       # average overall miss latency ((Tick/Count))
system.cpu0.icache.overallAvgMissLatency::total 76730.816780                       # average overall miss latency ((Tick/Count))
system.cpu0.icache.blockedCycles::no_mshrs          745                       # number of cycles access was blocked (Cycle)
system.cpu0.icache.blockedCycles::no_targets            0                       # number of cycles access was blocked (Cycle)
system.cpu0.icache.blockedCauses::no_mshrs            6                       # number of times access was blocked (Count)
system.cpu0.icache.blockedCauses::no_targets            0                       # number of times access was blocked (Count)
system.cpu0.icache.avgBlocked::no_mshrs    124.166667                       # average number of cycles each access was blocked ((Cycle/Count))
system.cpu0.icache.avgBlocked::no_targets          nan                       # average number of cycles each access was blocked ((Cycle/Count))
system.cpu0.icache.writebacks::writebacks         1489                       # number of writebacks (Count)
system.cpu0.icache.writebacks::total             1489                       # number of writebacks (Count)
system.cpu0.icache.demandMshrHits::cpu0.inst          656                       # number of demand (read+write) MSHR hits (Count)
system.cpu0.icache.demandMshrHits::total          656                       # number of demand (read+write) MSHR hits (Count)
system.cpu0.icache.overallMshrHits::cpu0.inst          656                       # number of overall MSHR hits (Count)
system.cpu0.icache.overallMshrHits::total          656                       # number of overall MSHR hits (Count)
system.cpu0.icache.demandMshrMisses::cpu0.inst         2002                       # number of demand (read+write) MSHR misses (Count)
system.cpu0.icache.demandMshrMisses::total         2002                       # number of demand (read+write) MSHR misses (Count)
system.cpu0.icache.overallMshrMisses::cpu0.inst         2002                       # number of overall MSHR misses (Count)
system.cpu0.icache.overallMshrMisses::total         2002                       # number of overall MSHR misses (Count)
system.cpu0.icache.demandMshrMissLatency::cpu0.inst    157184657                       # number of demand (read+write) MSHR miss ticks (Tick)
system.cpu0.icache.demandMshrMissLatency::total    157184657                       # number of demand (read+write) MSHR miss ticks (Tick)
system.cpu0.icache.overallMshrMissLatency::cpu0.inst    157184657                       # number of overall MSHR miss ticks (Tick)
system.cpu0.icache.overallMshrMissLatency::total    157184657                       # number of overall MSHR miss ticks (Tick)
system.cpu0.icache.demandMshrMissRate::cpu0.inst     0.000071                       # mshr miss ratio for demand accesses (Ratio)
system.cpu0.icache.demandMshrMissRate::total     0.000071                       # mshr miss ratio for demand accesses (Ratio)
system.cpu0.icache.overallMshrMissRate::cpu0.inst     0.000071                       # mshr miss ratio for overall accesses (Ratio)
system.cpu0.icache.overallMshrMissRate::total     0.000071                       # mshr miss ratio for overall accesses (Ratio)
system.cpu0.icache.demandAvgMshrMissLatency::cpu0.inst 78513.814685                       # average overall mshr miss latency ((Tick/Count))
system.cpu0.icache.demandAvgMshrMissLatency::total 78513.814685                       # average overall mshr miss latency ((Tick/Count))
system.cpu0.icache.overallAvgMshrMissLatency::cpu0.inst 78513.814685                       # average overall mshr miss latency ((Tick/Count))
system.cpu0.icache.overallAvgMshrMissLatency::total 78513.814685                       # average overall mshr miss latency ((Tick/Count))
system.cpu0.icache.replacements                  1489                       # number of replacements (Count)
system.cpu0.icache.ReadReq.hits::cpu0.inst     28257347                       # number of ReadReq hits (Count)
system.cpu0.icache.ReadReq.hits::total       28257347                       # number of ReadReq hits (Count)
system.cpu0.icache.ReadReq.misses::cpu0.inst         2658                       # number of ReadReq misses (Count)
system.cpu0.icache.ReadReq.misses::total         2658                       # number of ReadReq misses (Count)
system.cpu0.icache.ReadReq.missLatency::cpu0.inst    203950511                       # number of ReadReq miss ticks (Tick)
system.cpu0.icache.ReadReq.missLatency::total    203950511                       # number of ReadReq miss ticks (Tick)
system.cpu0.icache.ReadReq.accesses::cpu0.inst     28260005                       # number of ReadReq accesses(hits+misses) (Count)
system.cpu0.icache.ReadReq.accesses::total     28260005                       # number of ReadReq accesses(hits+misses) (Count)
system.cpu0.icache.ReadReq.missRate::cpu0.inst     0.000094                       # miss rate for ReadReq accesses (Ratio)
system.cpu0.icache.ReadReq.missRate::total     0.000094                       # miss rate for ReadReq accesses (Ratio)
system.cpu0.icache.ReadReq.avgMissLatency::cpu0.inst 76730.816780                       # average ReadReq miss latency ((Tick/Count))
system.cpu0.icache.ReadReq.avgMissLatency::total 76730.816780                       # average ReadReq miss latency ((Tick/Count))
system.cpu0.icache.ReadReq.mshrHits::cpu0.inst          656                       # number of ReadReq MSHR hits (Count)
system.cpu0.icache.ReadReq.mshrHits::total          656                       # number of ReadReq MSHR hits (Count)
system.cpu0.icache.ReadReq.mshrMisses::cpu0.inst         2002                       # number of ReadReq MSHR misses (Count)
system.cpu0.icache.ReadReq.mshrMisses::total         2002                       # number of ReadReq MSHR misses (Count)
system.cpu0.icache.ReadReq.mshrMissLatency::cpu0.inst    157184657                       # number of ReadReq MSHR miss ticks (Tick)
system.cpu0.icache.ReadReq.mshrMissLatency::total    157184657                       # number of ReadReq MSHR miss ticks (Tick)
system.cpu0.icache.ReadReq.mshrMissRate::cpu0.inst     0.000071                       # mshr miss rate for ReadReq accesses (Ratio)
system.cpu0.icache.ReadReq.mshrMissRate::total     0.000071                       # mshr miss rate for ReadReq accesses (Ratio)
system.cpu0.icache.ReadReq.avgMshrMissLatency::cpu0.inst 78513.814685                       # average ReadReq mshr miss latency ((Tick/Count))
system.cpu0.icache.ReadReq.avgMshrMissLatency::total 78513.814685                       # average ReadReq mshr miss latency ((Tick/Count))
system.cpu0.icache.power_state.pwrStateResidencyTicks::UNDEFINED  40124571264                       # Cumulative time (in ticks) in various power states (Tick)
system.cpu0.icache.tags.tagsInUse          511.704752                       # Average ticks per tags in use ((Tick/Count))
system.cpu0.icache.tags.totalRefs            28259348                       # Total number of references to valid blocks. (Count)
system.cpu0.icache.tags.sampledRefs              2001                       # Sample count of references to valid blocks. (Count)
system.cpu0.icache.tags.avgRefs          14122.612694                       # Average number of references to valid blocks. ((Count/Count))
system.cpu0.icache.tags.warmupTick              92241                       # The tick when the warmup percentage was hit. (Tick)
system.cpu0.icache.tags.occupancies::cpu0.inst   511.704752                       # Average occupied blocks per tick, per requestor ((Count/Tick))
system.cpu0.icache.tags.avgOccs::cpu0.inst     0.999423                       # Average percentage of cache occupancy ((Ratio/Tick))
system.cpu0.icache.tags.avgOccs::total       0.999423                       # Average percentage of cache occupancy ((Ratio/Tick))
system.cpu0.icache.tags.occupanciesTaskId::1024          512                       # Occupied blocks per task id (Count)
system.cpu0.icache.tags.ageTaskId_1024::0          153                       # Occupied blocks per task id, per block age (Count)
system.cpu0.icache.tags.ageTaskId_1024::1          183                       # Occupied blocks per task id, per block age (Count)
system.cpu0.icache.tags.ageTaskId_1024::4          176                       # Occupied blocks per task id, per block age (Count)
system.cpu0.icache.tags.ratioOccsTaskId::1024            1                       # Ratio of occupied blocks and all blocks, per task id (Ratio)
system.cpu0.icache.tags.tagAccesses         226082041                       # Number of tag accesses (Count)
system.cpu0.icache.tags.dataAccesses        226082041                       # Number of data accesses (Count)
system.cpu0.icache.tags.power_state.pwrStateResidencyTicks::UNDEFINED  40124571264                       # Cumulative time (in ticks) in various power states (Tick)
system.cpu0.iew.idleCycles                          0                       # Number of cycles IEW is idle (Cycle)
system.cpu0.iew.squashCycles                   694942                       # Number of cycles IEW is squashing (Cycle)
system.cpu0.iew.blockCycles                    440675                       # Number of cycles IEW is blocking (Cycle)
system.cpu0.iew.unblockCycles                   22564                       # Number of cycles IEW is unblocking (Cycle)
system.cpu0.iew.dispatchedInsts             285983460                       # Number of instructions dispatched to IQ (Count)
system.cpu0.iew.dispSquashedInsts             1188237                       # Number of squashed instructions skipped by dispatch (Count)
system.cpu0.iew.dispLoadInsts                30588985                       # Number of dispatched load instructions (Count)
system.cpu0.iew.dispStoreInsts               13394863                       # Number of dispatched store instructions (Count)
system.cpu0.iew.dispNonSpecInsts                 2242                       # Number of dispatched non-speculative instructions (Count)
system.cpu0.iew.iqFullEvents                     2461                       # Number of times the IQ has become full, causing a stall (Count)
system.cpu0.iew.lsqFullEvents                   18518                       # Number of times the LSQ has become full, causing a stall (Count)
system.cpu0.iew.memOrderViolationEvents          1133                       # Number of memory order violations (Count)
system.cpu0.iew.predictedTakenIncorrect        684229                       # Number of branches that were predicted taken incorrectly (Count)
system.cpu0.iew.predictedNotTakenIncorrect        11491                       # Number of branches that were predicted not taken incorrectly (Count)
system.cpu0.iew.branchMispredicts              695720                       # Number of branch mispredicts detected at execute (Count)
system.cpu0.iew.instsToCommit               283368909                       # Cumulative count of insts sent to commit (Count)
system.cpu0.iew.writebackCount              283321865                       # Cumulative count of insts written-back (Count)
system.cpu0.iew.producerInst                217445259                       # Number of instructions producing a value (Count)
system.cpu0.iew.consumerInst                460117043                       # Number of instructions consuming a value (Count)
system.cpu0.iew.wbRate                       2.574811                       # Insts written-back per cycle ((Count/Cycle))
system.cpu0.iew.wbFanout                     0.472587                       # Average fanout of values written-back ((Count/Count))
system.cpu0.interrupts.clk_domain.clock          5328                       # Clock period in ticks (Tick)
system.cpu0.itb_walker_cache.blockedCycles::no_mshrs            0                       # number of cycles access was blocked (Cycle)
system.cpu0.itb_walker_cache.blockedCycles::no_targets            0                       # number of cycles access was blocked (Cycle)
system.cpu0.itb_walker_cache.blockedCauses::no_mshrs            0                       # number of times access was blocked (Count)
system.cpu0.itb_walker_cache.blockedCauses::no_targets            0                       # number of times access was blocked (Count)
system.cpu0.itb_walker_cache.avgBlocked::no_mshrs          nan                       # average number of cycles each access was blocked ((Cycle/Count))
system.cpu0.itb_walker_cache.avgBlocked::no_targets          nan                       # average number of cycles each access was blocked ((Cycle/Count))
system.cpu0.itb_walker_cache.replacements            0                       # number of replacements (Count)
[...]
system.mem_ctrls.dram.avgMemAccLat           27579.63                       # Average memory access latency per DRAM burst ((Tick/Count))
system.mem_ctrls.dram.readRowHits               27869                       # Number of row buffer hits during reads (Count)
system.mem_ctrls.dram.writeRowHits                  0                       # Number of row buffer hits during writes (Count)
system.mem_ctrls.dram.readRowHitRate            72.76                       # Row buffer hit rate for reads (Ratio)
system.mem_ctrls.dram.writeRowHitRate             nan                       # Row buffer hit rate for writes (Ratio)
system.mem_ctrls.dram.bytesPerActivate::samples        10429                       # Bytes accessed per row activation (Byte)
system.mem_ctrls.dram.bytesPerActivate::mean   234.883498                       # Bytes accessed per row activation (Byte)
system.mem_ctrls.dram.bytesPerActivate::gmean   209.838945                       # Bytes accessed per row activation (Byte)
system.mem_ctrls.dram.bytesPerActivate::stdev   128.529260                       # Bytes accessed per row activation (Byte)
system.mem_ctrls.dram.bytesPerActivate::0-127          845      8.10%      8.10% # Bytes accessed per row activation (Byte)
system.mem_ctrls.dram.bytesPerActivate::128-255         2177     20.87%     28.98% # Bytes accessed per row activation (Byte)
system.mem_ctrls.dram.bytesPerActivate::256-383         7069     67.78%     96.76% # Bytes accessed per row activation (Byte)
system.mem_ctrls.dram.bytesPerActivate::384-511           62      0.59%     97.35% # Bytes accessed per row activation (Byte)
system.mem_ctrls.dram.bytesPerActivate::512-639           41      0.39%     97.75% # Bytes accessed per row activation (Byte)
system.mem_ctrls.dram.bytesPerActivate::640-767           37      0.35%     98.10% # Bytes accessed per row activation (Byte)
system.mem_ctrls.dram.bytesPerActivate::768-895           26      0.25%     98.35% # Bytes accessed per row activation (Byte)
system.mem_ctrls.dram.bytesPerActivate::896-1023           25      0.24%     98.59% # Bytes accessed per row activation (Byte)
system.mem_ctrls.dram.bytesPerActivate::1024-1151          147      1.41%    100.00% # Bytes accessed per row activation (Byte)
system.mem_ctrls.dram.bytesPerActivate::total        10429                       # Bytes accessed per row activation (Byte)
system.mem_ctrls.dram.bytesRead               2451392                       # Total bytes read (Byte)
system.mem_ctrls.dram.bytesWritten                  0                       # Total bytes written (Byte)
system.mem_ctrls.dram.avgRdBW               61.094534                       # Average DRAM read bandwidth in MiBytes/s ((Byte/Second))
system.mem_ctrls.dram.avgWrBW                       0                       # Average DRAM write bandwidth in MiBytes/s ((Byte/Second))
system.mem_ctrls.dram.peakBW                 12800.00                       # Theoretical peak bandwidth in MiByte/s ((Byte/Second))
system.mem_ctrls.dram.busUtil                    0.48                       # Data bus utilization in percentage (Ratio)
system.mem_ctrls.dram.busUtilRead                0.48                       # Data bus utilization in percentage for reads (Ratio)
system.mem_ctrls.dram.busUtilWrite               0.00                       # Data bus utilization in percentage for writes (Ratio)
system.mem_ctrls.dram.pageHitRate               72.76                       # Row buffer hit rate, read and write combined (Ratio)
system.mem_ctrls.dram.power_state.pwrStateResidencyTicks::UNDEFINED  40124571264                       # Cumulative time (in ticks) in various power states (Tick)
system.mem_ctrls.dram.rank0.actEnergy        35721420                       # Energy for activate commands per rank (pJ) (Joule)
system.mem_ctrls.dram.rank0.preEnergy        18975000                       # Energy for precharge commands per rank (pJ) (Joule)
system.mem_ctrls.dram.rank0.readEnergy      136930920                       # Energy for read commands per rank (pJ) (Joule)
system.mem_ctrls.dram.rank0.writeEnergy             0                       # Energy for write commands per rank (pJ) (Joule)
system.mem_ctrls.dram.rank0.refreshEnergy 3167239920.000000                       # Energy for refresh commands per rank (pJ) (Joule)
system.mem_ctrls.dram.rank0.actBackEnergy   3396777630                       # Energy for active background per rank (pJ) (Joule)
system.mem_ctrls.dram.rank0.preBackEnergy  12547391520                       # Energy for precharge background per rank (pJ) (Joule)
system.mem_ctrls.dram.rank0.actPowerDownEnergy            0                       # Energy for active power-down per rank (pJ) (Joule)
system.mem_ctrls.dram.rank0.prePowerDownEnergy            0                       # Energy for precharge power-down per rank (pJ) (Joule)
system.mem_ctrls.dram.rank0.selfRefreshEnergy            0                       # Energy for self refresh per rank (pJ) (Joule)
system.mem_ctrls.dram.rank0.totalEnergy   19303036410                       # Total energy per rank (pJ) (Joule)
system.mem_ctrls.dram.rank0.averagePower   481.077699                       # Core power per rank (mW) (Watt)
system.mem_ctrls.dram.rank0.totalIdleTime            0                       # Total Idle time Per DRAM Rank (Tick)
system.mem_ctrls.dram.rank0.pwrStateTime::IDLE  32589313208                       # Time in different power states (Tick)
system.mem_ctrls.dram.rank0.pwrStateTime::REF   1339780000                       # Time in different power states (Tick)
system.mem_ctrls.dram.rank0.pwrStateTime::SREF            0                       # Time in different power states (Tick)
system.mem_ctrls.dram.rank0.pwrStateTime::PRE_PDN            0                       # Time in different power states (Tick)
system.mem_ctrls.dram.rank0.pwrStateTime::ACT   6195478056                       # Time in different power states (Tick)
system.mem_ctrls.dram.rank0.pwrStateTime::ACT_PDN            0                       # Time in different power states (Tick)
system.mem_ctrls.dram.rank1.actEnergy        38777340                       # Energy for activate commands per rank (pJ) (Joule)
system.mem_ctrls.dram.rank1.preEnergy        20603055                       # Energy for precharge commands per rank (pJ) (Joule)
system.mem_ctrls.dram.rank1.readEnergy      136552500                       # Energy for read commands per rank (pJ) (Joule)
system.mem_ctrls.dram.rank1.writeEnergy             0                       # Energy for write commands per rank (pJ) (Joule)
system.mem_ctrls.dram.rank1.refreshEnergy 3167239920.000000                       # Energy for refresh commands per rank (pJ) (Joule)
system.mem_ctrls.dram.rank1.actBackEnergy   3381225750                       # Energy for active background per rank (pJ) (Joule)
system.mem_ctrls.dram.rank1.preBackEnergy  12560487840                       # Energy for precharge background per rank (pJ) (Joule)
system.mem_ctrls.dram.rank1.actPowerDownEnergy            0                       # Energy for active power-down per rank (pJ) (Joule)
system.mem_ctrls.dram.rank1.prePowerDownEnergy            0                       # Energy for precharge power-down per rank (pJ) (Joule)
system.mem_ctrls.dram.rank1.selfRefreshEnergy            0                       # Energy for self refresh per rank (pJ) (Joule)
system.mem_ctrls.dram.rank1.totalEnergy   19304886405                       # Total energy per rank (pJ) (Joule)
system.mem_ctrls.dram.rank1.averagePower   481.123805                       # Core power per rank (mW) (Watt)
system.mem_ctrls.dram.rank1.totalIdleTime            0                       # Total Idle time Per DRAM Rank (Tick)
system.mem_ctrls.dram.rank1.pwrStateTime::IDLE  32622947511                       # Time in different power states (Tick)
system.mem_ctrls.dram.rank1.pwrStateTime::REF   1339780000                       # Time in different power states (Tick)
system.mem_ctrls.dram.rank1.pwrStateTime::SREF            0                       # Time in different power states (Tick)
system.mem_ctrls.dram.rank1.pwrStateTime::PRE_PDN            0                       # Time in different power states (Tick)
system.mem_ctrls.dram.rank1.pwrStateTime::ACT   6161843753                       # Time in different power states (Tick)
system.mem_ctrls.dram.rank1.pwrStateTime::ACT_PDN            0                       # Time in different power states (Tick)
system.mem_ctrls.power_state.pwrStateResidencyTicks::UNDEFINED  40124571264                       # Cumulative time (in ticks) in various power states (Tick)
system.membus.transDist::ReadResp                4416                       # Transaction distribution (Count)
system.membus.transDist::UpgradeReq             36414                       # Transaction distribution (Count)
system.membus.transDist::ReadExReq              34660                       # Transaction distribution (Count)
system.membus.transDist::ReadExResp             33887                       # Transaction distribution (Count)
system.membus.transDist::ReadSharedReq           4416                       # Transaction distribution (Count)
system.membus.pktCount_system.l3.mem_side_port::system.mem_ctrls.port       113793                       # Packet count per connected requestor and responder (Count)
system.membus.pktCount_system.l3.mem_side_port::total       113793                       # Packet count per connected requestor and responder (Count)
system.membus.pktCount::total                  113793                       # Packet count per connected requestor and responder (Count)
system.membus.pktSize_system.l3.mem_side_port::system.mem_ctrls.port      2451392                       # Cumulative packet size per connected requestor and responder (Byte)
system.membus.pktSize_system.l3.mem_side_port::total      2451392                       # Cumulative packet size per connected requestor and responder (Byte)
system.membus.pktSize::total                  2451392                       # Cumulative packet size per connected requestor and responder (Byte)
system.membus.snoops                            37187                       # Total snoops (Count)
system.membus.snoopTraffic                          0                       # Total snoop traffic (Byte)
system.membus.snoopFanout::samples              75490                       # Request fanout histogram (Count)
system.membus.snoopFanout::mean                     0                       # Request fanout histogram (Count)
system.membus.snoopFanout::stdev                    0                       # Request fanout histogram (Count)
system.membus.snoopFanout::underflows               0      0.00%      0.00% # Request fanout histogram (Count)
system.membus.snoopFanout::0                    75490    100.00%    100.00% # Request fanout histogram (Count)
system.membus.snoopFanout::1                        0      0.00%    100.00% # Request fanout histogram (Count)
system.membus.snoopFanout::overflows                0      0.00%    100.00% # Request fanout histogram (Count)
system.membus.snoopFanout::min_value                0                       # Request fanout histogram (Count)
system.membus.snoopFanout::max_value                0                       # Request fanout histogram (Count)
system.membus.snoopFanout::total                75490                       # Request fanout histogram (Count)
system.membus.power_state.pwrStateResidencyTicks::UNDEFINED  40124571264                       # Cumulative time (in ticks) in various power states (Tick)
system.membus.reqLayer8.occupancy            57700258                       # Layer occupancy (ticks) (Tick)
system.membus.reqLayer8.utilization               0.0                       # Layer utilization (Ratio)
system.membus.respLayer1.occupancy          203858767                       # Layer occupancy (ticks) (Tick)
system.membus.respLayer1.utilization              0.0                       # Layer utilization (Ratio)
system.membus.snoop_filter.totRequests          75490                       # Total number of requests made to the snoop filter. (Count)
system.membus.snoop_filter.hitSingleRequests        37187                       # Number of requests hitting in the snoop filter with a single holder of the requested data. (Count)
system.membus.snoop_filter.hitMultiRequests            0                       # Number of requests hitting in the snoop filter with multiple (>1) holders of the requested data. (Count)
system.membus.snoop_filter.totSnoops                0                       # Total number of snoops made to the snoop filter. (Count)
system.membus.snoop_filter.hitSingleSnoops            0                       # Number of snoops hitting in the snoop filter with a single holder of the requested data. (Count)
system.membus.snoop_filter.hitMultiSnoops            0                       # Number of snoops hitting in the snoop filter with multiple (>1) holders of the requested data. (Count)
system.tol3bus.transDist::ReadResp             105898                       # Transaction distribution (Count)
system.tol3bus.transDist::ReadRespWithInvalidate          107                       # Transaction distribution (Count)
system.tol3bus.transDist::WritebackDirty        11036                       # Transaction distribution (Count)
system.tol3bus.transDist::CleanEvict             3421                       # Transaction distribution (Count)
system.tol3bus.transDist::UpgradeReq            38427                       # Transaction distribution (Count)
system.tol3bus.transDist::UpgradeResp           38427                       # Transaction distribution (Count)
system.tol3bus.transDist::ReadExReq             35155                       # Transaction distribution (Count)
system.tol3bus.transDist::ReadExResp            35155                       # Transaction distribution (Count)
system.tol3bus.transDist::ReadSharedReq        106005                       # Transaction distribution (Count)
system.tol3bus.pktCount_system.cpu0.l2cache.mem_side_port::system.l3.cpu_side_port       124130                       # Packet count per connected requestor and responder (Count)
system.tol3bus.pktCount_system.cpu1.l2cache.mem_side_port::system.l3.cpu_side_port        43350                       # Packet count per connected requestor and responder (Count)
system.tol3bus.pktCount_system.cpu2.l2cache.mem_side_port::system.l3.cpu_side_port        39371                       # Packet count per connected requestor and responder (Count)
system.tol3bus.pktCount_system.cpu3.l2cache.mem_side_port::system.l3.cpu_side_port        38750                       # Packet count per connected requestor and responder (Count)
system.tol3bus.pktCount::total                 245601                       # Packet count per connected requestor and responder (Count)
system.tol3bus.pktSize_system.cpu0.l2cache.mem_side_port::system.l3.cpu_side_port      3485184                       # Cumulative packet size per connected requestor and responder (Byte)
system.tol3bus.pktSize_system.cpu1.l2cache.mem_side_port::system.l3.cpu_side_port       256704                       # Cumulative packet size per connected requestor and responder (Byte)
system.tol3bus.pktSize_system.cpu2.l2cache.mem_side_port::system.l3.cpu_side_port        73088                       # Cumulative packet size per connected requestor and responder (Byte)
system.tol3bus.pktSize_system.cpu3.l2cache.mem_side_port::system.l3.cpu_side_port        62144                       # Cumulative packet size per connected requestor and responder (Byte)
system.tol3bus.pktSize::total                 3877120                       # Cumulative packet size per connected requestor and responder (Byte)
system.tol3bus.snoops                          128030                       # Total snoops (Count)
system.tol3bus.snoopTraffic                   5863424                       # Total snoop traffic (Byte)
system.tol3bus.snoopFanout::samples            179587                       # Request fanout histogram (Count)
system.tol3bus.snoopFanout::mean             1.035103                       # Request fanout histogram (Count)
system.tol3bus.snoopFanout::stdev            0.877412                       # Request fanout histogram (Count)
system.tol3bus.snoopFanout::underflows              0      0.00%      0.00% # Request fanout histogram (Count)
system.tol3bus.snoopFanout::0                   48418     26.96%     26.96% # Request fanout histogram (Count)
system.tol3bus.snoopFanout::1                   94115     52.41%     79.37% # Request fanout histogram (Count)
system.tol3bus.snoopFanout::2                   19386     10.79%     90.16% # Request fanout histogram (Count)
system.tol3bus.snoopFanout::3                   17668      9.84%    100.00% # Request fanout histogram (Count)
system.tol3bus.snoopFanout::4                       0      0.00%    100.00% # Request fanout histogram (Count)
system.tol3bus.snoopFanout::overflows               0      0.00%    100.00% # Request fanout histogram (Count)
system.tol3bus.snoopFanout::min_value               0                       # Request fanout histogram (Count)
system.tol3bus.snoopFanout::max_value               3                       # Request fanout histogram (Count)
system.tol3bus.snoopFanout::total              179587                       # Request fanout histogram (Count)
system.tol3bus.power_state.pwrStateResidencyTicks::UNDEFINED  40124571264                       # Cumulative time (in ticks) in various power states (Tick)
system.tol3bus.reqLayer0.occupancy           71989580                       # Layer occupancy (ticks) (Tick)
system.tol3bus.reqLayer0.utilization              0.0                       # Layer utilization (Ratio)
system.tol3bus.respLayer0.occupancy          63190399                       # Layer occupancy (ticks) (Tick)
system.tol3bus.respLayer0.utilization             0.0                       # Layer utilization (Ratio)
system.tol3bus.respLayer1.occupancy          30920667                       # Layer occupancy (ticks) (Tick)
system.tol3bus.respLayer1.utilization             0.0                       # Layer utilization (Ratio)
system.tol3bus.respLayer2.occupancy          29987919                       # Layer occupancy (ticks) (Tick)
system.tol3bus.respLayer2.utilization             0.0                       # Layer utilization (Ratio)
system.tol3bus.respLayer3.occupancy          29763829                       # Layer occupancy (ticks) (Tick)
system.tol3bus.respLayer3.utilization             0.0                       # Layer utilization (Ratio)
system.tol3bus.snoop_filter.totRequests        194044                       # Total number of requests made to the snoop filter. (Count)
system.tol3bus.snoop_filter.hitSingleRequests        68939                       # Number of requests hitting in the snoop filter with a single holder of the requested data. (Count)
system.tol3bus.snoop_filter.hitMultiRequests        76687                       # Number of requests hitting in the snoop filter with multiple (>1) holders of the requested data. (Count)
system.tol3bus.snoop_filter.totSnoops               0                       # Total number of snoops made to the snoop filter. (Count)
system.tol3bus.snoop_filter.hitSingleSnoops            0                       # Number of snoops hitting in the snoop filter with a single holder of the requested data. (Count)
system.tol3bus.snoop_filter.hitMultiSnoops            0                       # Number of snoops hitting in the snoop filter with multiple (>1) holders of the requested data. (Count)
system.voltage_domain.voltage                       1                       # Voltage in Volts (Volt)
system.workload.inst.arm                            0                       # number of arm instructions executed (Count)
system.workload.inst.quiesce                        0                       # number of quiesce instructions executed (Count)

---------- End Simulation Statistics   ----------
