
---------- Begin Simulation Statistics ----------
simSeconds                                   0.006605                       # Number of seconds simulated (Second)
simTicks                                   6605079309                       # Number of ticks simulated (Tick)
finalTick                                  6605079309                       # Number of ticks from beginning of simulation (restored from checkpoints and never reset) (Tick)
simFreq                                  1000000000000                       # The number of ticks per simulated second ((Tick/Second))
hostSeconds                                    190.46                       # Real time elapsed on the host (Second)
hostTickRate                                 34679852                       # The number of ticks simulated per host second (ticks/s) ((Tick/Second))
hostMemory                                     899884                       # Number of bytes of host memory used (Byte)
simInsts                                     50778468                       # Number of instructions simulated (Count)
simOps                                       82858365                       # Number of ops (including micro ops) simulated (Count)
hostInstRate                                   266611                       # Simulator instruction rate (inst/s) ((Count/Second))
hostOpRate                                     435046                       # Simulator op (including micro ops) rate (op/s) ((Count/Second))
system.clk_domain.clock                          1000                       # Clock period in ticks (Tick)
system.cpu0.numCycles                        19682441                       # Number of cpu cycles simulated (Cycle)
system.cpu0.numWorkItemsStarted                     0                       # Number of work items this cpu started (Count)
system.cpu0.numWorkItemsCompleted                   0                       # Number of work items this cpu completed (Count)
system.cpu0.instsAdded                       49112588                       # Number of instructions added to the IQ (excludes non-spec) (Count)
system.cpu0.nonSpecInstsAdded                    1785                       # Number of non-speculative instructions added to the IQ (Count)
system.cpu0.instsIssued                      48912031                       # Number of instructions issued (Count)
system.cpu0.squashedInstsIssued                  5949                       # Number of squashed instructions issued (Count)
system.cpu0.squashedInstsExamined              734656                       # Number of squashed instructions iterated over during squash; mainly for profiling (Count)
system.cpu0.squashedOperandsExamined          1207579                       # Number of squashed operands that are examined and possibly removed from graph (Count)
system.cpu0.squashedNonSpecRemoved                849                       # Number of squashed non-spec instructions that were removed (Count)
system.cpu0.numIssuedDist::samples           19440435                       # Number of insts issued each cycle (Count)
system.cpu0.numIssuedDist::mean              2.515995                       # Number of insts issued each cycle (Count)
system.cpu0.numIssuedDist::stdev             2.583213                       # Number of insts issued each cycle (Count)
system.cpu0.numIssuedDist::underflows               0      0.00%      0.00% # Number of insts issued each cycle (Count)
system.cpu0.numIssuedDist::0                  7772807     39.98%     39.98% # Number of insts issued each cycle (Count)
system.cpu0.numIssuedDist::1                  1239919      6.38%     46.36% # Number of insts issued each cycle (Count)
system.cpu0.numIssuedDist::2                  1300572      6.69%     53.05% # Number of insts issued each cycle (Count)
system.cpu0.numIssuedDist::3                  2265216     11.65%     64.70% # Number of insts issued each cycle (Count)
system.cpu0.numIssuedDist::4                  2009886     10.34%     75.04% # Number of insts issued each cycle (Count)
system.cpu0.numIssuedDist::5                  1408568      7.25%     82.29% # Number of insts issued each cycle (Count)
system.cpu0.numIssuedDist::6                  1763396      9.07%     91.36% # Number of insts issued each cycle (Count)
system.cpu0.numIssuedDist::7                   828008      4.26%     95.62% # Number of insts issued each cycle (Count)
system.cpu0.numIssuedDist::8                   852063      4.38%    100.00% # Number of insts issued each cycle (Count)
system.cpu0.numIssuedDist::overflows                0      0.00%    100.00% # Number of insts issued each cycle (Count)
system.cpu0.numIssuedDist::min_value                0                       # Number of insts issued each cycle (Count)
system.cpu0.numIssuedDist::max_value                8                       # Number of insts issued each cycle (Count)
system.cpu0.numIssuedDist::total             19440435                       # Number of insts issued each cycle (Count)
system.cpu0.statFuBusy::No_OpClass                  0      0.00%      0.00% # attempts to use FU when none available (Count)
system.cpu0.statFuBusy::IntAlu                 207942     77.36%     77.36% # attempts to use FU when none available (Count)
system.cpu0.statFuBusy::IntMult                     0      0.00%     77.36% # attempts to use FU when none available (Count)
system.cpu0.statFuBusy::IntDiv                      0      0.00%     77.36% # attempts to use FU when none available (Count)
system.cpu0.statFuBusy::FloatAdd                    0      0.00%     77.36% # attempts to use FU when none available (Count)
system.cpu0.statFuBusy::FloatCmp                    0      0.00%     77.36% # attempts to use FU when none available (Count)
system.cpu0.statFuBusy::FloatCvt                    0      0.00%     77.36% # attempts to use FU when none available (Count)
system.cpu0.statFuBusy::FloatMult                   0      0.00%     77.36% # attempts to use FU when none available (Count)
system.cpu0.statFuBusy::FloatMultAcc                0      0.00%     77.36% # attempts to use FU when none available (Count)
system.cpu0.statFuBusy::FloatDiv                    0      0.00%     77.36% # attempts to use FU when none available (Count)
system.cpu0.statFuBusy::FloatMisc                   0      0.00%     77.36% # attempts to use FU when none available (Count)
system.cpu0.statFuBusy::FloatSqrt                   0      0.00%     77.36% # attempts to use FU when none available (Count)
system.cpu0.statFuBusy::SimdAdd                     1      0.00%     77.36% # attempts to use FU when none available (Count)
system.cpu0.statFuBusy::SimdAddAcc                  0      0.00%     77.36% # attempts to use FU when none available (Count)
system.cpu0.statFuBusy::SimdAlu                 18892      7.03%     84.38% # attempts to use FU when none available (Count)
system.cpu0.statFuBusy::SimdCmp                     0      0.00%     84.38% # attempts to use FU when none available (Count)
system.cpu0.statFuBusy::SimdCvt                   122      0.05%     84.43% # attempts to use FU when none available (Count)
system.cpu0.statFuBusy::SimdMisc                   24      0.01%     84.44% # attempts to use FU when none available (Count)
system.cpu0.statFuBusy::SimdMult                    0      0.00%     84.44% # attempts to use FU when none available (Count)
system.cpu0.statFuBusy::SimdMultAcc                 0      0.00%     84.44% # attempts to use FU when none available (Count)
system.cpu0.statFuBusy::SimdShift                  26      0.01%     84.45% # attempts to use FU when none available (Count)
system.cpu0.statFuBusy::SimdShiftAcc                0      0.00%     84.45% # attempts to use FU when none available (Count)
system.cpu0.statFuBusy::SimdDiv                     0      0.00%     84.45% # attempts to use FU when none available (Count)
system.cpu0.statFuBusy::SimdSqrt                    0      0.00%     84.45% # attempts to use FU when none available (Count)
system.cpu0.statFuBusy::SimdFloatAdd             1641      0.61%     85.06% # attempts to use FU when none available (Count)
system.cpu0.statFuBusy::SimdFloatAlu                0      0.00%     85.06% # attempts to use FU when none available (Count)
system.cpu0.statFuBusy::SimdFloatCmp                0      0.00%     85.06% # attempts to use FU when none available (Count)
system.cpu0.statFuBusy::SimdFloatCvt             8390      3.12%     88.18% # attempts to use FU when none available (Count)
system.cpu0.statFuBusy::SimdFloatDiv                0      0.00%     88.18% # attempts to use FU when none available (Count)
system.cpu0.statFuBusy::SimdFloatMisc               0      0.00%     88.18% # attempts to use FU when none available (Count)
system.cpu0.statFuBusy::SimdFloatMult           12486      4.64%     92.82% # attempts to use FU when none available (Count)
system.cpu0.statFuBusy::SimdFloatMultAcc            0      0.00%     92.82% # attempts to use FU when none available (Count)
system.cpu0.statFuBusy::SimdFloatSqrt               0      0.00%     92.82% # attempts to use FU when none available (Count)
system.cpu0.statFuBusy::SimdReduceAdd               0      0.00%     92.82% # attempts to use FU when none available (Count)
system.cpu0.statFuBusy::SimdReduceAlu               0      0.00%     92.82% # attempts to use FU when none available (Count)
system.cpu0.statFuBusy::SimdReduceCmp               0      0.00%     92.82% # attempts to use FU when none available (Count)
system.cpu0.statFuBusy::SimdFloatReduceAdd            0      0.00%     92.82% # attempts to use FU when none available (Count)
system.cpu0.statFuBusy::SimdFloatReduceCmp            0      0.00%     92.82% # attempts to use FU when none available (Count)
system.cpu0.statFuBusy::SimdAes                     0      0.00%     92.82% # attempts to use FU when none available (Count)
system.cpu0.statFuBusy::SimdAesMix                  0      0.00%     92.82% # attempts to use FU when none available (Count)
system.cpu0.statFuBusy::SimdSha1Hash                0      0.00%     92.82% # attempts to use FU when none available (Count)
system.cpu0.statFuBusy::SimdSha1Hash2               0      0.00%     92.82% # attempts to use FU when none available (Count)
system.cpu0.statFuBusy::SimdSha256Hash              0      0.00%     92.82% # attempts to use FU when none available (Count)
system.cpu0.statFuBusy::SimdSha256Hash2             0      0.00%     92.82% # attempts to use FU when none available (Count)
system.cpu0.statFuBusy::SimdShaSigma2               0      0.00%     92.82% # attempts to use FU when none available (Count)
system.cpu0.statFuBusy::SimdShaSigma3               0      0.00%     92.82% # attempts to use FU when none available (Count)
system.cpu0.statFuBusy::SimdPredAlu                 0      0.00%     92.82% # attempts to use FU when none available (Count)
system.cpu0.statFuBusy::MemRead                  1852      0.69%     93.51% # attempts to use FU when none available (Count)
system.cpu0.statFuBusy::MemWrite                  953      0.35%     93.87% # attempts to use FU when none available (Count)
system.cpu0.statFuBusy::FloatMemRead             7175      2.67%     96.54% # attempts to use FU when none available (Count)
system.cpu0.statFuBusy::FloatMemWrite            9309      3.46%    100.00% # attempts to use FU when none available (Count)
system.cpu0.statFuBusy::IprAccess                   0      0.00%    100.00% # attempts to use FU when none available (Count)
system.cpu0.statFuBusy::InstPrefetch                0      0.00%    100.00% # attempts to use FU when none available (Count)
system.cpu0.statIssuedInstType_0::No_OpClass       741160      1.52%      1.52% # Number of instructions issued per FU type, per thread (Count)
system.cpu0.statIssuedInstType_0::IntAlu     28928641     59.14%     60.66% # Number of instructions issued per FU type, per thread (Count)
system.cpu0.statIssuedInstType_0::IntMult       132090      0.27%     60.93% # Number of instructions issued per FU type, per thread (Count)
system.cpu0.statIssuedInstType_0::IntDiv         9937      0.02%     60.95% # Number of instructions issued per FU type, per thread (Count)
system.cpu0.statIssuedInstType_0::FloatAdd      2535642      5.18%     66.13% # Number of instructions issued per FU type, per thread (Count)
system.cpu0.statIssuedInstType_0::FloatCmp            0      0.00%     66.13% # Number of instructions issued per FU type, per thread (Count)
system.cpu0.statIssuedInstType_0::FloatCvt          192      0.00%     66.13% # Number of instructions issued per FU type, per thread (Count)
system.cpu0.statIssuedInstType_0::FloatMult            0      0.00%     66.13% # Number of instructions issued per FU type, per thread (Count)
system.cpu0.statIssuedInstType_0::FloatMultAcc            0      0.00%     66.13% # Number of instructions issued per FU type, per thread (Count)
system.cpu0.statIssuedInstType_0::FloatDiv            0      0.00%     66.13% # Number of instructions issued per FU type, per thread (Count)
system.cpu0.statIssuedInstType_0::FloatMisc            0      0.00%     66.13% # Number of instructions issued per FU type, per thread (Count)
system.cpu0.statIssuedInstType_0::FloatSqrt            0      0.00%     66.13% # Number of instructions issued per FU type, per thread (Count)
system.cpu0.statIssuedInstType_0::SimdAdd         1428      0.00%     66.14% # Number of instructions issued per FU type, per thread (Count)
system.cpu0.statIssuedInstType_0::SimdAddAcc            0      0.00%     66.14% # Number of instructions issued per FU type, per thread (Count)
system.cpu0.statIssuedInstType_0::SimdAlu      1337321      2.73%     68.87% # Number of instructions issued per FU type, per thread (Count)
system.cpu0.statIssuedInstType_0::SimdCmp            6      0.00%     68.87% # Number of instructions issued per FU type, per thread (Count)
system.cpu0.statIssuedInstType_0::SimdCvt         4014      0.01%     68.88% # Number of instructions issued per FU type, per thread (Count)
system.cpu0.statIssuedInstType_0::SimdMisc       381117      0.78%     69.66% # Number of instructions issued per FU type, per thread (Count)
system.cpu0.statIssuedInstType_0::SimdMult            0      0.00%     69.66% # Number of instructions issued per FU type, per thread (Count)
system.cpu0.statIssuedInstType_0::SimdMultAcc            0      0.00%     69.66% # Number of instructions issued per FU type, per thread (Count)
system.cpu0.statIssuedInstType_0::SimdShift         1407      0.00%     69.66% # Number of instructions issued per FU type, per thread (Count)
system.cpu0.statIssuedInstType_0::SimdShiftAcc            0      0.00%     69.66% # Number of instructions issued per FU type, per thread (Count)
system.cpu0.statIssuedInstType_0::SimdDiv            0      0.00%     69.66% # Number of instructions issued per FU type, per thread (Count)
system.cpu0.statIssuedInstType_0::SimdSqrt            0      0.00%     69.66% # Number of instructions issued per FU type, per thread (Count)
system.cpu0.statIssuedInstType_0::SimdFloatAdd      2617990      5.35%     75.01% # Number of instructions issued per FU type, per thread (Count)
system.cpu0.statIssuedInstType_0::SimdFloatAlu            0      0.00%     75.01% # Number of instructions issued per FU type, per thread (Count)
system.cpu0.statIssuedInstType_0::SimdFloatCmp            0      0.00%     75.01% # Number of instructions issued per FU type, per thread (Count)
system.cpu0.statIssuedInstType_0::SimdFloatCvt       283825      0.58%     75.59% # Number of instructions issued per FU type, per thread (Count)
system.cpu0.statIssuedInstType_0::SimdFloatDiv        66067      0.14%     75.73% # Number of instructions issued per FU type, per thread (Count)
system.cpu0.statIssuedInstType_0::SimdFloatMisc            0      0.00%     75.73% # Number of instructions issued per FU type, per thread (Count)
system.cpu0.statIssuedInstType_0::SimdFloatMult      2278737      4.66%     80.39% # Number of instructions issued per FU type, per thread (Count)
system.cpu0.statIssuedInstType_0::SimdFloatMultAcc            0      0.00%     80.39% # Number of instructions issued per FU type, per thread (Count)
system.cpu0.statIssuedInstType_0::SimdFloatSqrt            0      0.00%     80.39% # Number of instructions issued per FU type, per thread (Count)
system.cpu0.statIssuedInstType_0::SimdReduceAdd            0      0.00%     80.39% # Number of instructions issued per FU type, per thread (Count)
system.cpu0.statIssuedInstType_0::SimdReduceAlu            0      0.00%     80.39% # Number of instructions issued per FU type, per thread (Count)
system.cpu0.statIssuedInstType_0::SimdReduceCmp            0      0.00%     80.39% # Number of instructions issued per FU type, per thread (Count)
system.cpu0.statIssuedInstType_0::SimdFloatReduceAdd            0      0.00%     80.39% # Number of instructions issued per FU type, per thread (Count)
system.cpu0.statIssuedInstType_0::SimdFloatReduceCmp            0      0.00%     80.39% # Number of instructions issued per FU type, per thread (Count)
system.cpu0.statIssuedInstType_0::SimdAes            0      0.00%     80.39% # Number of instructions issued per FU type, per thread (Count)
system.cpu0.statIssuedInstType_0::SimdAesMix            0      0.00%     80.39% # Number of instructions issued per FU type, per thread (Count)
system.cpu0.statIssuedInstType_0::SimdSha1Hash            0      0.00%     80.39% # Number of instructions issued per FU type, per thread (Count)
system.cpu0.statIssuedInstType_0::SimdSha1Hash2            0      0.00%     80.39% # Number of instructions issued per FU type, per thread (Count)
system.cpu0.statIssuedInstType_0::SimdSha256Hash            0      0.00%     80.39% # Number of instructions issued per FU type, per thread (Count)
system.cpu0.statIssuedInstType_0::SimdSha256Hash2            0      0.00%     80.39% # Number of instructions issued per FU type, per thread (Count)
system.cpu0.statIssuedInstType_0::SimdShaSigma2            0      0.00%     80.39% # Number of instructions issued per FU type, per thread (Count)
system.cpu0.statIssuedInstType_0::SimdShaSigma3            0      0.00%     80.39% # Number of instructions issued per FU type, per thread (Count)
system.cpu0.statIssuedInstType_0::SimdPredAlu            0      0.00%     80.39% # Number of instructions issued per FU type, per thread (Count)
system.cpu0.statIssuedInstType_0::MemRead      3196673      6.54%     86.92% # Number of instructions issued per FU type, per thread (Count)
system.cpu0.statIssuedInstType_0::MemWrite      1614945      3.30%     90.23% # Number of instructions issued per FU type, per thread (Count)
system.cpu0.statIssuedInstType_0::FloatMemRead      3259973      6.66%     96.89% # Number of instructions issued per FU type, per thread (Count)
system.cpu0.statIssuedInstType_0::FloatMemWrite      1520866      3.11%    100.00% # Number of instructions issued per FU type, per thread (Count)
system.cpu0.statIssuedInstType_0::IprAccess            0      0.00%    100.00% # Number of instructions issued per FU type, per thread (Count)
system.cpu0.statIssuedInstType_0::InstPrefetch            0      0.00%    100.00% # Number of instructions issued per FU type, per thread (Count)
system.cpu0.statIssuedInstType_0::total      48912031                       # Number of instructions issued per FU type, per thread (Count)
system.cpu0.issueRate                        2.485059                       # Inst issue rate ((Count/Cycle))
system.cpu0.fuBusy                             268813                       # FU busy when requested (Count)
system.cpu0.fuBusyRate                       0.005496                       # FU busy rate (busy events/executed inst) ((Count/Count))
system.cpu0.intInstQueueReads                82662023                       # Number of integer instruction queue reads (Count)
system.cpu0.intInstQueueWrites               32287400                       # Number of integer instruction queue writes (Count)
system.cpu0.intInstQueueWakeupAccesses       31461996                       # Number of integer instruction queue wakeup accesses (Count)
system.cpu0.fpInstQueueReads                 34877236                       # Number of floating instruction queue reads (Count)
system.cpu0.fpInstQueueWrites                17561905                       # Number of floating instruction queue writes (Count)
system.cpu0.fpInstQueueWakeupAccesses        17366115                       # Number of floating instruction queue wakeup accesses (Count)
system.cpu0.vecInstQueueReads                       0                       # Number of vector instruction queue reads (Count)
system.cpu0.vecInstQueueWrites                      0                       # Number of vector instruction queue writes (Count)
system.cpu0.vecInstQueueWakeupAccesses              0                       # Number of vector instruction queue wakeup accesses (Count)
system.cpu0.intAluAccesses                   30969762                       # Number of integer alu accesses (Count)
system.cpu0.fpAluAccesses                    17469922                       # Number of floating point alu accesses (Count)
system.cpu0.vecAluAccesses                          0                       # Number of vector alu accesses (Count)
system.cpu0.numInsts                         48853767                       # Number of executed instructions (Count)
system.cpu0.numLoadInsts                      6442544                       # Number of load instructions executed (Count)
system.cpu0.numSquashedInsts                    58264                       # Number of squashed instructions skipped in execute (Count)
system.cpu0.numSwp                                  0                       # Number of swp insts executed (Count)
system.cpu0.numNop                                  0                       # Number of nop insts executed (Count)
system.cpu0.numRefs                           9575000                       # Number of memory reference insts executed (Count)
system.cpu0.numBranches                       3033151                       # Number of branches executed (Count)
system.cpu0.numStoreInsts                     3132456                       # Number of stores executed (Count)
system.cpu0.numRate                          2.482099                       # Inst execution rate ((Count/Cycle))
system.cpu0.timesIdled                           1354                       # Number of times that the entire CPU went into an idle state and unscheduled itself (Count)
system.cpu0.idleCycles                         242006                       # Total number of cycles that the CPU has spent unscheduled due to idling (Cycle)
system.cpu0.quiesceCycles                      152633                       # Total number of cycles that CPU has spent quiesced or waiting for an interrupt (Cycle)
system.cpu0.committedInsts                   28320511                       # Number of Instructions Simulated (Count)
system.cpu0.committedOps                     48379711                       # Number of Ops (including micro ops) Simulated (Count)
system.cpu0.cpi                              0.694989                       # CPI: Cycles Per Instruction ((Cycle/Count))
system.cpu0.totalCpi                         0.694989                       # CPI: Total CPI of All Threads ((Cycle/Count))
system.cpu0.ipc                              1.438872                       # IPC: Instructions Per Cycle ((Count/Cycle))
system.cpu0.totalIpc                         1.438872                       # IPC: Total IPC of All Threads ((Count/Cycle))
system.cpu0.intRegfileReads                  47444197                       # Number of integer regfile reads (Count)
system.cpu0.intRegfileWrites                 24741940                       # Number of integer regfile writes (Count)
system.cpu0.fpRegfileReads                   26324171                       # Number of floating regfile reads (Count)
system.cpu0.fpRegfileWrites                  15564277                       # Number of floating regfile writes (Count)
system.cpu0.ccRegfileReads                   13545135                       # number of cc regfile reads (Count)
system.cpu0.ccRegfileWrites                  14490670                       # number of cc regfile writes (Count)
system.cpu0.miscRegfileReads                 16671777                       # number of misc regfile reads (Count)
system.cpu0.miscRegfileWrites                     108                       # number of misc regfile writes (Count)
system.cpu0.MemDepUnit__0.insertedLoads       6464207                       # Number of loads inserted to the mem dependence unit. (Count)
system.cpu0.MemDepUnit__0.insertedStores      3149562                       # Number of stores inserted to the mem dependence unit. (Count)
system.cpu0.MemDepUnit__0.conflictingLoads       652225                       # Number of conflicting loads. (Count)
system.cpu0.MemDepUnit__0.conflictingStores       147569                       # Number of conflicting stores. (Count)
system.cpu0.MemDepUnit__1.insertedLoads             0                       # Number of loads inserted to the mem dependence unit. (Count)
system.cpu0.MemDepUnit__1.insertedStores            0                       # Number of stores inserted to the mem dependence unit. (Count)
system.cpu0.MemDepUnit__1.conflictingLoads            0                       # Number of conflicting loads. (Count)
system.cpu0.MemDepUnit__1.conflictingStores            0                       # Number of conflicting stores. (Count)
system.cpu0.MemDepUnit__2.insertedLoads             0                       # Number of loads inserted to the mem dependence unit. (Count)
system.cpu0.MemDepUnit__2.insertedStores            0                       # Number of stores inserted to the mem dependence unit. (Count)
system.cpu0.MemDepUnit__2.conflictingLoads            0                       # Number of conflicting loads. (Count)
system.cpu0.MemDepUnit__2.conflictingStores            0                       # Number of conflicting stores. (Count)
system.cpu0.MemDepUnit__3.insertedLoads             0                       # Number of loads inserted to the mem dependence unit. (Count)
system.cpu0.MemDepUnit__3.insertedStores            0                       # Number of stores inserted to the mem dependence unit. (Count)
system.cpu0.MemDepUnit__3.conflictingLoads            0                       # Number of conflicting loads. (Count)
system.cpu0.MemDepUnit__3.conflictingStores            0                       # Number of conflicting stores. (Count)
system.cpu0.branchPred.lookups                3101798                       # Number of BP lookups (Count)
system.cpu0.branchPred.condPredicted          1860768                       # Number of conditional branches predicted (Count)
system.cpu0.branchPred.condIncorrect            18830                       # Number of conditional branches incorrect (Count)
system.cpu0.branchPred.BTBLookups             1429052                       # Number of BTB lookups (Count)
system.cpu0.branchPred.BTBHits                1425865                       # Number of BTB hits (Count)
system.cpu0.branchPred.BTBHitRatio           0.997770                       # BTB Hit Ratio (Ratio)
system.cpu0.branchPred.RASUsed                 464087                       # Number of times the RAS was used to get a target. (Count)
system.cpu0.branchPred.RASIncorrect                 9                       # Number of incorrect RAS predictions. (Count)
system.cpu0.branchPred.indirectLookups         202831                       # Number of indirect predictor lookups. (Count)
system.cpu0.branchPred.indirectHits            199002                       # Number of indirect target hits. (Count)
system.cpu0.branchPred.indirectMisses            3829                       # Number of indirect misses. (Count)
system.cpu0.branchPred.indirectMispredicted          766                       # Number of mispredicted indirect branches. (Count)
system.cpu0.commit.commitSquashedInsts         703132                       # The number of squashed insts skipped by commit (Count)
system.cpu0.commit.commitNonSpecStalls            936                       # The number of times commit has been forced to stall to communicate backwards (Count)
system.cpu0.commit.branchMispredicts            18525                       # The number of times a branch was mispredicted (Count)
system.cpu0.commit.numCommittedDist::samples     19340716                       # Number of insts commited each cycle (Count)
system.cpu0.commit.numCommittedDist::mean     2.501444                       # Number of insts commited each cycle (Count)
system.cpu0.commit.numCommittedDist::stdev     3.058433                       # Number of insts commited each cycle (Count)
system.cpu0.commit.numCommittedDist::underflows            0      0.00%      0.00% # Number of insts commited each cycle (Count)
system.cpu0.commit.numCommittedDist::0        8181201     42.30%     42.30% # Number of insts commited each cycle (Count)
system.cpu0.commit.numCommittedDist::1        2469683     12.77%     55.07% # Number of insts commited each cycle (Count)
system.cpu0.commit.numCommittedDist::2        2048919     10.59%     65.66% # Number of insts commited each cycle (Count)
system.cpu0.commit.numCommittedDist::3        1121549      5.80%     71.46% # Number of insts commited each cycle (Count)
system.cpu0.commit.numCommittedDist::4         796263      4.12%     75.58% # Number of insts commited each cycle (Count)
system.cpu0.commit.numCommittedDist::5         545602      2.82%     78.40% # Number of insts commited each cycle (Count)
system.cpu0.commit.numCommittedDist::6         357772      1.85%     80.25% # Number of insts commited each cycle (Count)
system.cpu0.commit.numCommittedDist::7         169967      0.88%     81.13% # Number of insts commited each cycle (Count)
system.cpu0.commit.numCommittedDist::8        3649760     18.87%    100.00% # Number of insts commited each cycle (Count)
system.cpu0.commit.numCommittedDist::overflows            0      0.00%    100.00% # Number of insts commited each cycle (Count)
system.cpu0.commit.numCommittedDist::min_value            0                       # Number of insts commited each cycle (Count)
system.cpu0.commit.numCommittedDist::max_value            8                       # Number of insts commited each cycle (Count)
system.cpu0.commit.numCommittedDist::total     19340716                       # Number of insts commited each cycle (Count)
system.cpu0.commit.instsCommitted            28320511                       # Number of instructions committed (Count)
system.cpu0.commit.opsCommitted              48379711                       # Number of ops (including micro ops) committed (Count)
system.cpu0.commit.memRefs                    9497688                       # Number of memory references committed (Count)
system.cpu0.commit.loads                      6381812                       # Number of loads committed (Count)
system.cpu0.commit.amos                             0                       # Number of atomic instructions committed (Count)
system.cpu0.commit.membars                        552                       # Number of memory barriers committed (Count)
system.cpu0.commit.branches                   3002185                       # Number of branches committed (Count)
system.cpu0.commit.vectorInstructions               0                       # Number of committed Vector instructions. (Count)
system.cpu0.commit.floating                  17307865                       # Number of committed floating point instructions. (Count)
system.cpu0.commit.integer                   35458790                       # Number of committed integer instructions. (Count)
system.cpu0.commit.functionCalls               461443                       # Number of function calls committed. (Count)
system.cpu0.commit.committedInstType_0::No_OpClass       727252      1.50%      1.50% # Class of committed instruction (Count)
system.cpu0.commit.committedInstType_0::IntAlu     28550772     59.01%     60.52% # Class of committed instruction (Count)
system.cpu0.commit.committedInstType_0::IntMult       131792      0.27%     60.79% # Class of committed instruction (Count)
system.cpu0.commit.committedInstType_0::IntDiv         9704      0.02%     60.81% # Class of committed instruction (Count)
system.cpu0.commit.committedInstType_0::FloatAdd      2508291      5.18%     65.99% # Class of committed instruction (Count)
system.cpu0.commit.committedInstType_0::FloatCmp            0      0.00%     65.99% # Class of committed instruction (Count)
system.cpu0.commit.committedInstType_0::FloatCvt          192      0.00%     65.99% # Class of committed instruction (Count)
system.cpu0.commit.committedInstType_0::FloatMult            0      0.00%     65.99% # Class of committed instruction (Count)
system.cpu0.commit.committedInstType_0::FloatMultAcc            0      0.00%     65.99% # Class of committed instruction (Count)
system.cpu0.commit.committedInstType_0::FloatDiv            0      0.00%     65.99% # Class of committed instruction (Count)
system.cpu0.commit.committedInstType_0::FloatMisc            0      0.00%     65.99% # Class of committed instruction (Count)
system.cpu0.commit.committedInstType_0::FloatSqrt            0      0.00%     65.99% # Class of committed instruction (Count)
system.cpu0.commit.committedInstType_0::SimdAdd         1002      0.00%     66.00% # Class of committed instruction (Count)
system.cpu0.commit.committedInstType_0::SimdAddAcc            0      0.00%     66.00% # Class of committed instruction (Count)
system.cpu0.commit.committedInstType_0::SimdAlu      1328829      2.75%     68.74% # Class of committed instruction (Count)
system.cpu0.commit.committedInstType_0::SimdCmp            6      0.00%     68.74% # Class of committed instruction (Count)
system.cpu0.commit.committedInstType_0::SimdCvt         2620      0.01%     68.75% # Class of committed instruction (Count)
system.cpu0.commit.committedInstType_0::SimdMisc       379434      0.78%     69.53% # Class of committed instruction (Count)
system.cpu0.commit.committedInstType_0::SimdMult            0      0.00%     69.53% # Class of committed instruction (Count)
system.cpu0.commit.committedInstType_0::SimdMultAcc            0      0.00%     69.53% # Class of committed instruction (Count)
system.cpu0.commit.committedInstType_0::SimdShift          601      0.00%     69.53% # Class of committed instruction (Count)
system.cpu0.commit.committedInstType_0::SimdShiftAcc            0      0.00%     69.53% # Class of committed instruction (Count)
system.cpu0.commit.committedInstType_0::SimdDiv            0      0.00%     69.53% # Class of committed instruction (Count)
system.cpu0.commit.committedInstType_0::SimdSqrt            0      0.00%     69.53% # Class of committed instruction (Count)
system.cpu0.commit.committedInstType_0::SimdFloatAdd      2616341      5.41%     74.94% # Class of committed instruction (Count)
system.cpu0.commit.committedInstType_0::SimdFloatAlu            0      0.00%     74.94% # Class of committed instruction (Count)
system.cpu0.commit.committedInstType_0::SimdFloatCmp            0      0.00%     74.94% # Class of committed instruction (Count)
system.cpu0.commit.committedInstType_0::SimdFloatCvt       282900      0.58%     75.53% # Class of committed instruction (Count)
system.cpu0.commit.committedInstType_0::SimdFloatDiv        65794      0.14%     75.66% # Class of committed instruction (Count)
system.cpu0.commit.committedInstType_0::SimdFloatMisc            0      0.00%     75.66% # Class of committed instruction (Count)
system.cpu0.commit.committedInstType_0::SimdFloatMult      2276493      4.71%     80.37% # Class of committed instruction (Count)
system.cpu0.commit.committedInstType_0::SimdFloatMultAcc            0      0.00%     80.37% # Class of committed instruction (Count)
system.cpu0.commit.committedInstType_0::SimdFloatSqrt            0      0.00%     80.37% # Class of committed instruction (Count)
system.cpu0.commit.committedInstType_0::SimdReduceAdd            0      0.00%     80.37% # Class of committed instruction (Count)
system.cpu0.commit.committedInstType_0::SimdReduceAlu            0      0.00%     80.37% # Class of committed instruction (Count)
system.cpu0.commit.committedInstType_0::SimdReduceCmp            0      0.00%     80.37% # Class of committed instruction (Count)
system.cpu0.commit.committedInstType_0::SimdFloatReduceAdd            0      0.00%     80.37% # Class of committed instruction (Count)
system.cpu0.commit.committedInstType_0::SimdFloatReduceCmp            0      0.00%     80.37% # Class of committed instruction (Count)
system.cpu0.commit.committedInstType_0::SimdAes            0      0.00%     80.37% # Class of committed instruction (Count)
system.cpu0.commit.committedInstType_0::SimdAesMix            0      0.00%     80.37% # Class of committed instruction (Count)
system.cpu0.commit.committedInstType_0::SimdSha1Hash            0      0.00%     80.37% # Class of committed instruction (Count)
system.cpu0.commit.committedInstType_0::SimdSha1Hash2            0      0.00%     80.37% # Class of committed instruction (Count)
system.cpu0.commit.committedInstType_0::SimdSha256Hash            0      0.00%     80.37% # Class of committed instruction (Count)
system.cpu0.commit.committedInstType_0::SimdSha256Hash2            0      0.00%     80.37% # Class of committed instruction (Count)
system.cpu0.commit.committedInstType_0::SimdShaSigma2            0      0.00%     80.37% # Class of committed instruction (Count)
system.cpu0.commit.committedInstType_0::SimdShaSigma3            0      0.00%     80.37% # Class of committed instruction (Count)
system.cpu0.commit.committedInstType_0::SimdPredAlu            0      0.00%     80.37% # Class of committed instruction (Count)
system.cpu0.commit.committedInstType_0::MemRead      3157172      6.53%     86.89% # Class of committed instruction (Count)
system.cpu0.commit.committedInstType_0::MemWrite      1601678      3.31%     90.20% # Class of committed instruction (Count)
system.cpu0.commit.committedInstType_0::FloatMemRead      3224640      6.67%     96.87% # Class of committed instruction (Count)
system.cpu0.commit.committedInstType_0::FloatMemWrite      1514198      3.13%    100.00% # Class of committed instruction (Count)
system.cpu0.commit.committedInstType_0::IprAccess            0      0.00%    100.00% # Class of committed instruction (Count)
system.cpu0.commit.committedInstType_0::InstPrefetch            0      0.00%    100.00% # Class of committed instruction (Count)
system.cpu0.commit.committedInstType_0::total     48379711                       # Class of committed instruction (Count)
system.cpu0.commit.commitEligibleSamples      3649760                       # number cycles where commit BW limit reached (Cycle)
system.cpu0.dcache.demandHits::cpu0.data      7102427                       # number of demand (read+write) hits (Count)
system.cpu0.dcache.demandHits::total          7102427                       # number of demand (read+write) hits (Count)
system.cpu0.dcache.overallHits::cpu0.data      7102427                       # number of overall hits (Count)
system.cpu0.dcache.overallHits::total         7102427                       # number of overall hits (Count)
system.cpu0.dcache.demandMisses::cpu0.data       190092                       # number of demand (read+write) misses (Count)
system.cpu0.dcache.demandMisses::total         190092                       # number of demand (read+write) misses (Count)
system.cpu0.dcache.overallMisses::cpu0.data       190092                       # number of overall misses (Count)
system.cpu0.dcache.overallMisses::total        190092                       # number of overall misses (Count)
system.cpu0.dcache.demandMissLatency::cpu0.data   5937115935                       # number of demand (read+write) miss ticks (Tick)
system.cpu0.dcache.demandMissLatency::total   5937115935                       # number of demand (read+write) miss ticks (Tick)
system.cpu0.dcache.overallMissLatency::cpu0.data   5937115935                       # number of overall miss ticks (Tick)
system.cpu0.dcache.overallMissLatency::total   5937115935                       # number of overall miss ticks (Tick)
system.cpu0.dcache.demandAccesses::cpu0.data      7292519                       # number of demand (read+write) accesses (Count)
system.cpu0.dcache.demandAccesses::total      7292519                       # number of demand (read+write) accesses (Count)
system.cpu0.dcache.overallAccesses::cpu0.data      7292519                       # number of overall (read+write) accesses (Count)
system.cpu0.dcache.overallAccesses::total      7292519                       # number of overall (read+write) accesses (Count)
system.cpu0.dcache.demandMissRate::cpu0.data     0.026067                       # miss rate for demand accesses (Ratio)
system.cpu0.dcache.demandMissRate::total     0.026067                       # miss rate for demand accesses (Ratio)
system.cpu0.dcache.overallMissRate::cpu0.data     0.026067                       # miss rate for overall accesses (Ratio)
system.cpu0.dcache.overallMissRate::total     0.026067                       # miss rate for overall accesses (Ratio)
system.cpu0.dcache.demandAvgMissLatency::cpu0.data 31232.855328                       # average overall miss latency in ticks ((Tick/Count))
system.cpu0.dcache.demandAvgMissLatency::total 31232.855328                       # average overall miss latency in ticks ((Tick/Count))
system.cpu0.dcache.overallAvgMissLatency::cpu0.data 31232.855328                       # average overall miss latency ((Tick/Count))
system.cpu0.dcache.overallAvgMissLatency::total 31232.855328                       # average overall miss latency ((Tick/Count))
system.cpu0.dcache.blockedCycles::no_mshrs        62704                       # number of cycles access was blocked (Cycle)
system.cpu0.dcache.blockedCycles::no_targets           54                       # number of cycles access was blocked (Cycle)
system.cpu0.dcache.blockedCauses::no_mshrs         3898                       # number of times access was blocked (Count)
system.cpu0.dcache.blockedCauses::no_targets            3                       # number of times access was blocked (Count)
system.cpu0.dcache.avgBlocked::no_mshrs     16.086198                       # average number of cycles each access was blocked ((Cycle/Count))
system.cpu0.dcache.avgBlocked::no_targets           18                       # average number of cycles each access was blocked ((Cycle/Count))
system.cpu0.dcache.writebacks::writebacks        63487                       # number of writebacks (Count)
system.cpu0.dcache.writebacks::total            63487                       # number of writebacks (Count)
system.cpu0.dcache.demandMshrHits::cpu0.data       114346                       # number of demand (read+write) MSHR hits (Count)
system.cpu0.dcache.demandMshrHits::total       114346                       # number of demand (read+write) MSHR hits (Count)
system.cpu0.dcache.overallMshrHits::cpu0.data       114346                       # number of overall MSHR hits (Count)
system.cpu0.dcache.overallMshrHits::total       114346                       # number of overall MSHR hits (Count)
system.cpu0.dcache.demandMshrMisses::cpu0.data        75746                       # number of demand (read+write) MSHR misses (Count)
system.cpu0.dcache.demandMshrMisses::total        75746                       # number of demand (read+write) MSHR misses (Count)
system.cpu0.dcache.overallMshrMisses::cpu0.data        75746                       # number of overall MSHR misses (Count)
system.cpu0.dcache.overallMshrMisses::total        75746                       # number of overall MSHR misses (Count)
system.cpu0.dcache.demandMshrMissLatency::cpu0.data   3993284379                       # number of demand (read+write) MSHR miss ticks (Tick)
system.cpu0.dcache.demandMshrMissLatency::total   3993284379                       # number of demand (read+write) MSHR miss ticks (Tick)
system.cpu0.dcache.overallMshrMissLatency::cpu0.data   3993284379                       # number of overall MSHR miss ticks (Tick)
system.cpu0.dcache.overallMshrMissLatency::total   3993284379                       # number of overall MSHR miss ticks (Tick)
system.cpu0.dcache.demandMshrMissRate::cpu0.data     0.010387                       # mshr miss ratio for demand accesses (Ratio)
system.cpu0.dcache.demandMshrMissRate::total     0.010387                       # mshr miss ratio for demand accesses (Ratio)
system.cpu0.dcache.overallMshrMissRate::cpu0.data     0.010387                       # mshr miss ratio for overall accesses (Ratio)
system.cpu0.dcache.overallMshrMissRate::total     0.010387                       # mshr miss ratio for overall accesses (Ratio)
system.cpu0.dcache.demandAvgMshrMissLatency::cpu0.data 52719.409329                       # average overall mshr miss latency ((Tick/Count))
system.cpu0.dcache.demandAvgMshrMissLatency::total 52719.409329                       # average overall mshr miss latency ((Tick/Count))
system.cpu0.dcache.overallAvgMshrMissLatency::cpu0.data 52719.409329                       # average overall mshr miss latency ((Tick/Count))
system.cpu0.dcache.overallAvgMshrMissLatency::total 52719.409329                       # average overall mshr miss latency ((Tick/Count))
system.cpu0.dcache.replacements                 75090                       # number of replacements (Count)
system.cpu0.dcache.LockedRMWReadReq.hits::cpu0.data          213                       # number of LockedRMWReadReq hits (Count)
system.cpu0.dcache.LockedRMWReadReq.hits::total          213                       # number of LockedRMWReadReq hits (Count)
system.cpu0.dcache.LockedRMWReadReq.misses::cpu0.data           63                       # number of LockedRMWReadReq misses (Count)
system.cpu0.dcache.LockedRMWReadReq.misses::total           63                       # number of LockedRMWReadReq misses (Count)
system.cpu0.dcache.LockedRMWReadReq.missLatency::cpu0.data      1622376                       # number of LockedRMWReadReq miss ticks (Tick)
system.cpu0.dcache.LockedRMWReadReq.missLatency::total      1622376                       # number of LockedRMWReadReq miss ticks (Tick)
system.cpu0.dcache.LockedRMWReadReq.accesses::cpu0.data          276                       # number of LockedRMWReadReq accesses(hits+misses) (Count)
system.cpu0.dcache.LockedRMWReadReq.accesses::total          276                       # number of LockedRMWReadReq accesses(hits+misses) (Count)
system.cpu0.dcache.LockedRMWReadReq.missRate::cpu0.data     0.228261                       # miss rate for LockedRMWReadReq accesses (Ratio)
system.cpu0.dcache.LockedRMWReadReq.missRate::total     0.228261                       # miss rate for LockedRMWReadReq accesses (Ratio)
system.cpu0.dcache.LockedRMWReadReq.avgMissLatency::cpu0.data        25752                       # average LockedRMWReadReq miss latency ((Tick/Count))
system.cpu0.dcache.LockedRMWReadReq.avgMissLatency::total        25752                       # average LockedRMWReadReq miss latency ((Tick/Count))
system.cpu0.dcache.LockedRMWReadReq.mshrMisses::cpu0.data           63                       # number of LockedRMWReadReq MSHR misses (Count)
system.cpu0.dcache.LockedRMWReadReq.mshrMisses::total           63                       # number of LockedRMWReadReq MSHR misses (Count)
system.cpu0.dcache.LockedRMWReadReq.mshrMissLatency::cpu0.data      3996001                       # number of LockedRMWReadReq MSHR miss ticks (Tick)
system.cpu0.dcache.LockedRMWReadReq.mshrMissLatency::total      3996001                       # number of LockedRMWReadReq MSHR miss ticks (Tick)
system.cpu0.dcache.LockedRMWReadReq.mshrMissRate::cpu0.data     0.228261                       # mshr miss rate for LockedRMWReadReq accesses (Ratio)
system.cpu0.dcache.LockedRMWReadReq.mshrMissRate::total     0.228261                       # mshr miss rate for LockedRMWReadReq accesses (Ratio)
system.cpu0.dcache.LockedRMWReadReq.avgMshrMissLatency::cpu0.data 63428.587302                       # average LockedRMWReadReq mshr miss latency ((Tick/Count))
system.cpu0.dcache.LockedRMWReadReq.avgMshrMissLatency::total 63428.587302                       # average LockedRMWReadReq mshr miss latency ((Tick/Count))
system.cpu0.dcache.LockedRMWWriteReq.hits::cpu0.data          276                       # number of LockedRMWWriteReq hits (Count)
system.cpu0.dcache.LockedRMWWriteReq.hits::total          276                       # number of LockedRMWWriteReq hits (Count)
system.cpu0.dcache.LockedRMWWriteReq.accesses::cpu0.data          276                       # number of LockedRMWWriteReq accesses(hits+misses) (Count)
system.cpu0.dcache.LockedRMWWriteReq.accesses::total          276                       # number of LockedRMWWriteReq accesses(hits+misses) (Count)
system.cpu0.dcache.ReadReq.hits::cpu0.data      4033024                       # number of ReadReq hits (Count)
system.cpu0.dcache.ReadReq.hits::total        4033024                       # number of ReadReq hits (Count)
system.cpu0.dcache.ReadReq.misses::cpu0.data       143882                       # number of ReadReq misses (Count)
system.cpu0.dcache.ReadReq.misses::total       143882                       # number of ReadReq misses (Count)
system.cpu0.dcache.ReadReq.missLatency::cpu0.data   2472161031                       # number of ReadReq miss ticks (Tick)
system.cpu0.dcache.ReadReq.missLatency::total   2472161031                       # number of ReadReq miss ticks (Tick)
system.cpu0.dcache.ReadReq.accesses::cpu0.data      4176906                       # number of ReadReq accesses(hits+misses) (Count)
system.cpu0.dcache.ReadReq.accesses::total      4176906                       # number of ReadReq accesses(hits+misses) (Count)
system.cpu0.dcache.ReadReq.missRate::cpu0.data     0.034447                       # miss rate for ReadReq accesses (Ratio)
system.cpu0.dcache.ReadReq.missRate::total     0.034447                       # miss rate for ReadReq accesses (Ratio)
system.cpu0.dcache.ReadReq.avgMissLatency::cpu0.data 17181.864521                       # average ReadReq miss latency ((Tick/Count))
system.cpu0.dcache.ReadReq.avgMissLatency::total 17181.864521                       # average ReadReq miss latency ((Tick/Count))
system.cpu0.dcache.ReadReq.mshrHits::cpu0.data       114339                       # number of ReadReq MSHR hits (Count)
system.cpu0.dcache.ReadReq.mshrHits::total       114339                       # number of ReadReq MSHR hits (Count)
system.cpu0.dcache.ReadReq.mshrMisses::cpu0.data        29543                       # number of ReadReq MSHR misses (Count)
system.cpu0.dcache.ReadReq.mshrMisses::total        29543                       # number of ReadReq MSHR misses (Count)
system.cpu0.dcache.ReadReq.mshrMissLatency::cpu0.data    559466973                       # number of ReadReq MSHR miss ticks (Tick)
system.cpu0.dcache.ReadReq.mshrMissLatency::total    559466973                       # number of ReadReq MSHR miss ticks (Tick)
system.cpu0.dcache.ReadReq.mshrMissRate::cpu0.data     0.007073                       # mshr miss rate for ReadReq accesses (Ratio)
system.cpu0.dcache.ReadReq.mshrMissRate::total     0.007073                       # mshr miss rate for ReadReq accesses (Ratio)
system.cpu0.dcache.ReadReq.avgMshrMissLatency::cpu0.data 18937.378499                       # average ReadReq mshr miss latency ((Tick/Count))
system.cpu0.dcache.ReadReq.avgMshrMissLatency::total 18937.378499                       # average ReadReq mshr miss latency ((Tick/Count))
system.cpu0.dcache.WriteReq.hits::cpu0.data      3069403                       # number of WriteReq hits (Count)
system.cpu0.dcache.WriteReq.hits::total       3069403                       # number of WriteReq hits (Count)
system.cpu0.dcache.WriteReq.misses::cpu0.data        46210                       # number of WriteReq misses (Count)
system.cpu0.dcache.WriteReq.misses::total        46210                       # number of WriteReq misses (Count)
system.cpu0.dcache.WriteReq.missLatency::cpu0.data   3464954904                       # number of WriteReq miss ticks (Tick)
system.cpu0.dcache.WriteReq.missLatency::total   3464954904                       # number of WriteReq miss ticks (Tick)
system.cpu0.dcache.WriteReq.accesses::cpu0.data      3115613                       # number of WriteReq accesses(hits+misses) (Count)
system.cpu0.dcache.WriteReq.accesses::total      3115613                       # number of WriteReq accesses(hits+misses) (Count)
system.cpu0.dcache.WriteReq.missRate::cpu0.data     0.014832                       # miss rate for WriteReq accesses (Ratio)
system.cpu0.dcache.WriteReq.missRate::total     0.014832                       # miss rate for WriteReq accesses (Ratio)
system.cpu0.dcache.WriteReq.avgMissLatency::cpu0.data 74982.793854                       # average WriteReq miss latency ((Tick/Count))
system.cpu0.dcache.WriteReq.avgMissLatency::total 74982.793854                       # average WriteReq miss latency ((Tick/Count))
system.cpu0.dcache.WriteReq.mshrHits::cpu0.data            7                       # number of WriteReq MSHR hits (Count)
system.cpu0.dcache.WriteReq.mshrHits::total            7                       # number of WriteReq MSHR hits (Count)
system.cpu0.dcache.WriteReq.mshrMisses::cpu0.data        46203                       # number of WriteReq MSHR misses (Count)
system.cpu0.dcache.WriteReq.mshrMisses::total        46203                       # number of WriteReq MSHR misses (Count)
system.cpu0.dcache.WriteReq.mshrMissLatency::cpu0.data   3433817406                       # number of WriteReq MSHR miss ticks (Tick)
system.cpu0.dcache.WriteReq.mshrMissLatency::total   3433817406                       # number of WriteReq MSHR miss ticks (Tick)
system.cpu0.dcache.WriteReq.mshrMissRate::cpu0.data     0.014830                       # mshr miss rate for WriteReq accesses (Ratio)
system.cpu0.dcache.WriteReq.mshrMissRate::total     0.014830                       # mshr miss rate for WriteReq accesses (Ratio)
system.cpu0.dcache.WriteReq.avgMshrMissLatency::cpu0.data 74320.226089                       # average WriteReq mshr miss latency ((Tick/Count))
system.cpu0.dcache.WriteReq.avgMshrMissLatency::total 74320.226089                       # average WriteReq mshr miss latency ((Tick/Count))
system.cpu0.dcache.power_state.pwrStateResidencyTicks::UNDEFINED   6605079309                       # Cumulative time (in ticks) in various power states (Tick)
system.cpu0.dcache.tags.tagsInUse          509.603292                       # Average ticks per tags in use ((Tick/Count))
system.cpu0.dcache.tags.totalRefs             7178751                       # Total number of references to valid blocks. (Count)
system.cpu0.dcache.tags.sampledRefs             75715                       # Sample count of references to valid blocks. (Count)
system.cpu0.dcache.tags.avgRefs             94.812798                       # Average number of references to valid blocks. ((Count/Count))
system.cpu0.dcache.tags.warmupTick             189144                       # The tick when the warmup percentage was hit. (Tick)
system.cpu0.dcache.tags.occupancies::cpu0.data   509.603292                       # Average occupied blocks per tick, per requestor ((Count/Tick))
system.cpu0.dcache.tags.avgOccs::cpu0.data     0.995319                       # Average percentage of cache occupancy ((Ratio/Tick))
system.cpu0.dcache.tags.avgOccs::total       0.995319                       # Average percentage of cache occupancy ((Ratio/Tick))
system.cpu0.dcache.tags.occupanciesTaskId::1024          512                       # Occupied blocks per task id (Count)
system.cpu0.dcache.tags.ageTaskId_1024::0           90                       # Occupied blocks per task id, per block age (Count)
system.cpu0.dcache.tags.ageTaskId_1024::1          422                       # Occupied blocks per task id, per block age (Count)
system.cpu0.dcache.tags.ratioOccsTaskId::1024            1                       # Ratio of occupied blocks and all blocks, per task id (Ratio)
system.cpu0.dcache.tags.tagAccesses          58420283                       # Number of tag accesses (Count)
system.cpu0.dcache.tags.dataAccesses         58420283                       # Number of data accesses (Count)
system.cpu0.dcache.tags.power_state.pwrStateResidencyTicks::UNDEFINED   6605079309                       # Cumulative time (in ticks) in various power states (Tick)
system.cpu0.decode.idleCycles                 3801278                       # Number of cycles decode is idle (Cycle)
system.cpu0.decode.blockedCycles              8020091                       # Number of cycles decode is blocked (Cycle)
system.cpu0.decode.runCycles                  7403421                       # Number of cycles decode is running (Cycle)
system.cpu0.decode.unblockCycles               195963                       # Number of cycles decode is unblocking (Cycle)
system.cpu0.decode.squashCycles                 19682                       # Number of cycles decode is squashing (Cycle)
system.cpu0.decode.branchResolved             1419292                       # Number of times decode resolved a branch (Count)
system.cpu0.decode.branchMispred                  961                       # Number of times decode detected a branch misprediction (Count)
system.cpu0.decode.decodedInsts              49363788                       # Number of instructions handled by decode (Count)
system.cpu0.decode.squashedInsts                 4665                       # Number of squashed instructions handled by decode (Count)
system.cpu0.dtb_walker_cache.blockedCycles::no_mshrs            0                       # number of cycles access was blocked (Cycle)
system.cpu0.dtb_walker_cache.blockedCycles::no_targets            0                       # number of cycles access was blocked (Cycle)
system.cpu0.dtb_walker_cache.blockedCauses::no_mshrs            0                       # number of times access was blocked (Count)
system.cpu0.dtb_walker_cache.blockedCauses::no_targets            0                       # number of times access was blocked (Count)
system.cpu0.dtb_walker_cache.avgBlocked::no_mshrs          nan                       # average number of cycles each access was blocked ((Cycle/Count))
system.cpu0.dtb_walker_cache.avgBlocked::no_targets          nan                       # average number of cycles each access was blocked ((Cycle/Count))
system.cpu0.dtb_walker_cache.replacements            0                       # number of replacements (Count)
system.cpu0.dtb_walker_cache.power_state.pwrStateResidencyTicks::UNDEFINED   6605079309                       # Cumulative time (in ticks) in various power states (Tick)
system.cpu0.dtb_walker_cache.tags.tagsInUse            0                       # Average ticks per tags in use ((Tick/Count))
system.cpu0.dtb_walker_cache.tags.totalRefs            0                       # Total number of references to valid blocks. (Count)
system.cpu0.dtb_walker_cache.tags.sampledRefs            0                       # Sample count of references to valid blocks. (Count)
system.cpu0.dtb_walker_cache.tags.avgRefs          nan                       # Average number of references to valid blocks. ((Count/Count))
system.cpu0.dtb_walker_cache.tags.warmupTick            0                       # The tick when the warmup percentage was hit. (Tick)
system.cpu0.dtb_walker_cache.tags.tagAccesses            0                       # Number of tag accesses (Count)
system.cpu0.dtb_walker_cache.tags.dataAccesses            0                       # Number of data accesses (Count)
system.cpu0.dtb_walker_cache.tags.power_state.pwrStateResidencyTicks::UNDEFINED   6605079309                       # Cumulative time (in ticks) in various power states (Tick)
system.cpu0.fetch.icacheStallCycles           3662875                       # Number of cycles fetch is stalled on an Icache miss (Cycle)
system.cpu0.fetch.insts                      28992177                       # Number of instructions fetch has processed (Count)
system.cpu0.fetch.branches                    3101798                       # Number of branches that fetch encountered (Count)
system.cpu0.fetch.predictedBranches           2088954                       # Number of branches that fetch has predicted taken (Count)
system.cpu0.fetch.cycles                     15751402                       # Number of cycles fetch has run and was not squashing or blocked (Cycle)
system.cpu0.fetch.squashCycles                  41260                       # Number of cycles fetch has spent squashing (Cycle)
system.cpu0.fetch.miscStallCycles                 691                       # Number of cycles fetch has spent waiting on interrupts, or bad addresses, or out of MSHRs (Cycle)
system.cpu0.fetch.pendingTrapStallCycles         4790                       # Number of stall cycles due to pending traps (Cycle)
system.cpu0.fetch.icacheWaitRetryStallCycles           47                       # Number of stall cycles due to full MSHR (Cycle)
system.cpu0.fetch.cacheLines                  3573283                       # Number of cache lines fetched (Count)
system.cpu0.fetch.icacheSquashes                 4266                       # Number of outstanding Icache misses that were squashed (Count)
system.cpu0.fetch.nisnDist::samples          19440435                       # Number of instructions fetched each cycle (Total) (Count)
system.cpu0.fetch.nisnDist::mean             2.548371                       # Number of instructions fetched each cycle (Total) (Count)
system.cpu0.fetch.nisnDist::stdev            3.447018                       # Number of instructions fetched each cycle (Total) (Count)
system.cpu0.fetch.nisnDist::underflows              0      0.00%      0.00% # Number of instructions fetched each cycle (Total) (Count)
system.cpu0.fetch.nisnDist::0                11643076     59.89%     59.89% # Number of instructions fetched each cycle (Total) (Count)
system.cpu0.fetch.nisnDist::1                  578844      2.98%     62.87% # Number of instructions fetched each cycle (Total) (Count)
system.cpu0.fetch.nisnDist::2                  254286      1.31%     64.18% # Number of instructions fetched each cycle (Total) (Count)
system.cpu0.fetch.nisnDist::3                  399840      2.06%     66.23% # Number of instructions fetched each cycle (Total) (Count)
system.cpu0.fetch.nisnDist::4                  542414      2.79%     69.02% # Number of instructions fetched each cycle (Total) (Count)
system.cpu0.fetch.nisnDist::5                  597108      3.07%     72.09% # Number of instructions fetched each cycle (Total) (Count)
system.cpu0.fetch.nisnDist::6                  370981      1.91%     74.00% # Number of instructions fetched each cycle (Total) (Count)
system.cpu0.fetch.nisnDist::7                  557669      2.87%     76.87% # Number of instructions fetched each cycle (Total) (Count)
system.cpu0.fetch.nisnDist::8                 4496217     23.13%    100.00% # Number of instructions fetched each cycle (Total) (Count)
system.cpu0.fetch.nisnDist::overflows               0      0.00%    100.00% # Number of instructions fetched each cycle (Total) (Count)
system.cpu0.fetch.nisnDist::min_value               0                       # Number of instructions fetched each cycle (Total) (Count)
system.cpu0.fetch.nisnDist::max_value               8                       # Number of instructions fetched each cycle (Total) (Count)
system.cpu0.fetch.nisnDist::total            19440435                       # Number of instructions fetched each cycle (Total) (Count)
system.cpu0.fetch.branchRate                 0.157592                       # Number of branch fetches per cycle (Ratio)
system.cpu0.fetch.rate                       1.472997                       # Number of inst fetches per cycle ((Count/Cycle))
system.cpu0.icache.demandHits::cpu0.inst      3570635                       # number of demand (read+write) hits (Count)
system.cpu0.icache.demandHits::total          3570635                       # number of demand (read+write) hits (Count)
system.cpu0.icache.overallHits::cpu0.inst      3570635                       # number of overall hits (Count)
system.cpu0.icache.overallHits::total         3570635                       # number of overall hits (Count)
system.cpu0.icache.demandMisses::cpu0.inst         2648                       # number of demand (read+write) misses (Count)
system.cpu0.icache.demandMisses::total           2648                       # number of demand (read+write) misses (Count)
system.cpu0.icache.overallMisses::cpu0.inst         2648                       # number of overall misses (Count)
system.cpu0.icache.overallMisses::total          2648                       # number of overall misses (Count)
system.cpu0.icache.demandMissLatency::cpu0.inst    203707088                       # number of demand (read+write) miss ticks (Tick)
system.cpu0.icache.demandMissLatency::total    203707088                       # number of demand (read+write) miss ticks (Tick)
system.cpu0.icache.overallMissLatency::cpu0.inst    203707088                       # number of overall miss ticks (Tick)
system.cpu0.icache.overallMissLatency::total    203707088                       # number of overall miss ticks (Tick)
system.cpu0.icache.demandAccesses::cpu0.inst      3573283                       # number of demand (read+write) accesses (Count)
system.cpu0.icache.demandAccesses::total      3573283                       # number of demand (read+write) accesses (Count)
system.cpu0.icache.overallAccesses::cpu0.inst      3573283                       # number of overall (read+write) accesses (Count)
system.cpu0.icache.overallAccesses::total      3573283                       # number of overall (read+write) accesses (Count)
system.cpu0.icache.demandMissRate::cpu0.inst     0.000741                       # miss rate for demand accesses (Ratio)
system.cpu0.icache.demandMissRate::total     0.000741                       # miss rate for demand accesses (Ratio)
system.cpu0.icache.overallMissRate::cpu0.inst     0.000741                       # miss rate for overall accesses (Ratio)
system.cpu0.icache.overallMissRate::total     0.000741                       # miss rate for overall accesses (Ratio)
system.cpu0.icache.demandAvgMissLatency::cpu0.inst 76928.658610                       # average overall miss latency in ticks ((Tick/Count))
system.cpu0.icache.demandAvgMissLatency::total 76928.658610                       # average overall miss latency in ticks ((Tick/Count))
system.cpu0.icache.overallAvgMissLatency::cpu0.inst 76928.658610                       # average overall miss latency ((Tick/Count))
system.cpu0.icache.overallAvgMissLatency::total 76928.658610                       # average overall miss latency ((Tick/Count))
system.cpu0.icache.blockedCycles::no_mshrs         1590                       # number of cycles access was blocked (Cycle)
system.cpu0.icache.blockedCycles::no_targets            0                       # number of cycles access was blocked (Cycle)
system.cpu0.icache.blockedCauses::no_mshrs           12                       # number of times access was blocked (Count)
system.cpu0.icache.blockedCauses::no_targets            0                       # number of times access was blocked (Count)
system.cpu0.icache.avgBlocked::no_mshrs    132.500000                       # average number of cycles each access was blocked ((Cycle/Count))
system.cpu0.icache.avgBlocked::no_targets          nan                       # average number of cycles each access was blocked ((Cycle/Count))
system.cpu0.icache.writebacks::writebacks         1494                       # number of writebacks (Count)
system.cpu0.icache.writebacks::total             1494                       # number of writebacks (Count)
system.cpu0.icache.demandMshrHits::cpu0.inst          641                       # number of demand (read+write) MSHR hits (Count)
system.cpu0.icache.demandMshrHits::total          641                       # number of demand (read+write) MSHR hits (Count)
system.cpu0.icache.overallMshrHits::cpu0.inst          641                       # number of overall MSHR hits (Count)
system.cpu0.icache.overallMshrHits::total          641                       # number of overall MSHR hits (Count)
system.cpu0.icache.demandMshrMisses::cpu0.inst         2007                       # number of demand (read+write) MSHR misses (Count)
system.cpu0.icache.demandMshrMisses::total         2007                       # number of demand (read+write) MSHR misses (Count)
system.cpu0.icache.overallMshrMisses::cpu0.inst         2007                       # number of overall MSHR misses (Count)
system.cpu0.icache.overallMshrMisses::total         2007                       # number of overall MSHR misses (Count)
system.cpu0.icache.demandMshrMissLatency::cpu0.inst    158153021                       # number of demand (read+write) MSHR miss ticks (Tick)
system.cpu0.icache.demandMshrMissLatency::total    158153021                       # number of demand (read+write) MSHR miss ticks (Tick)
system.cpu0.icache.overallMshrMissLatency::cpu0.inst    158153021                       # number of overall MSHR miss ticks (Tick)
system.cpu0.icache.overallMshrMissLatency::total    158153021                       # number of overall MSHR miss ticks (Tick)
system.cpu0.icache.demandMshrMissRate::cpu0.inst     0.000562                       # mshr miss ratio for demand accesses (Ratio)
system.cpu0.icache.demandMshrMissRate::total     0.000562                       # mshr miss ratio for demand accesses (Ratio)
system.cpu0.icache.overallMshrMissRate::cpu0.inst     0.000562                       # mshr miss ratio for overall accesses (Ratio)
system.cpu0.icache.overallMshrMissRate::total     0.000562                       # mshr miss ratio for overall accesses (Ratio)
system.cpu0.icache.demandAvgMshrMissLatency::cpu0.inst 78800.708022                       # average overall mshr miss latency ((Tick/Count))
system.cpu0.icache.demandAvgMshrMissLatency::total 78800.708022                       # average overall mshr miss latency ((Tick/Count))
system.cpu0.icache.overallAvgMshrMissLatency::cpu0.inst 78800.708022                       # average overall mshr miss latency ((Tick/Count))
system.cpu0.icache.overallAvgMshrMissLatency::total 78800.708022                       # average overall mshr miss latency ((Tick/Count))
system.cpu0.icache.replacements                  1494                       # number of replacements (Count)
system.cpu0.icache.ReadReq.hits::cpu0.inst      3570635                       # number of ReadReq hits (Count)
system.cpu0.icache.ReadReq.hits::total        3570635                       # number of ReadReq hits (Count)
system.cpu0.icache.ReadReq.misses::cpu0.inst         2648                       # number of ReadReq misses (Count)
system.cpu0.icache.ReadReq.misses::total         2648                       # number of ReadReq misses (Count)
system.cpu0.icache.ReadReq.missLatency::cpu0.inst    203707088                       # number of ReadReq miss ticks (Tick)
system.cpu0.icache.ReadReq.missLatency::total    203707088                       # number of ReadReq miss ticks (Tick)
system.cpu0.icache.ReadReq.accesses::cpu0.inst      3573283                       # number of ReadReq accesses(hits+misses) (Count)
system.cpu0.icache.ReadReq.accesses::total      3573283                       # number of ReadReq accesses(hits+misses) (Count)
system.cpu0.icache.ReadReq.missRate::cpu0.inst     0.000741                       # miss rate for ReadReq accesses (Ratio)
system.cpu0.icache.ReadReq.missRate::total     0.000741                       # miss rate for ReadReq accesses (Ratio)
system.cpu0.icache.ReadReq.avgMissLatency::cpu0.inst 76928.658610                       # average ReadReq miss latency ((Tick/Count))
system.cpu0.icache.ReadReq.avgMissLatency::total 76928.658610                       # average ReadReq miss latency ((Tick/Count))
system.cpu0.icache.ReadReq.mshrHits::cpu0.inst          641                       # number of ReadReq MSHR hits (Count)
system.cpu0.icache.ReadReq.mshrHits::total          641                       # number of ReadReq MSHR hits (Count)
system.cpu0.icache.ReadReq.mshrMisses::cpu0.inst         2007                       # number of ReadReq MSHR misses (Count)
system.cpu0.icache.ReadReq.mshrMisses::total         2007                       # number of ReadReq MSHR misses (Count)
system.cpu0.icache.ReadReq.mshrMissLatency::cpu0.inst    158153021                       # number of ReadReq MSHR miss ticks (Tick)
system.cpu0.icache.ReadReq.mshrMissLatency::total    158153021                       # number of ReadReq MSHR miss ticks (Tick)
system.cpu0.icache.ReadReq.mshrMissRate::cpu0.inst     0.000562                       # mshr miss rate for ReadReq accesses (Ratio)
system.cpu0.icache.ReadReq.mshrMissRate::total     0.000562                       # mshr miss rate for ReadReq accesses (Ratio)
system.cpu0.icache.ReadReq.avgMshrMissLatency::cpu0.inst 78800.708022                       # average ReadReq mshr miss latency ((Tick/Count))
system.cpu0.icache.ReadReq.avgMshrMissLatency::total 78800.708022                       # average ReadReq mshr miss latency ((Tick/Count))
system.cpu0.icache.power_state.pwrStateResidencyTicks::UNDEFINED   6605079309                       # Cumulative time (in ticks) in various power states (Tick)
system.cpu0.icache.tags.tagsInUse          510.209118                       # Average ticks per tags in use ((Tick/Count))
system.cpu0.icache.tags.totalRefs             3572641                       # Total number of references to valid blocks. (Count)
system.cpu0.icache.tags.sampledRefs              2006                       # Sample count of references to valid blocks. (Count)
system.cpu0.icache.tags.avgRefs           1780.977567                       # Average number of references to valid blocks. ((Count/Count))
system.cpu0.icache.tags.warmupTick              92241                       # The tick when the warmup percentage was hit. (Tick)
system.cpu0.icache.tags.occupancies::cpu0.inst   510.209118                       # Average occupied blocks per tick, per requestor ((Count/Tick))
system.cpu0.icache.tags.avgOccs::cpu0.inst     0.996502                       # Average percentage of cache occupancy ((Ratio/Tick))
system.cpu0.icache.tags.avgOccs::total       0.996502                       # Average percentage of cache occupancy ((Ratio/Tick))
system.cpu0.icache.tags.occupanciesTaskId::1024          512                       # Occupied blocks per task id (Count)
system.cpu0.icache.tags.ageTaskId_1024::0          126                       # Occupied blocks per task id, per block age (Count)
system.cpu0.icache.tags.ageTaskId_1024::1          112                       # Occupied blocks per task id, per block age (Count)
system.cpu0.icache.tags.ageTaskId_1024::2           12                       # Occupied blocks per task id, per block age (Count)
system.cpu0.icache.tags.ageTaskId_1024::3          262                       # Occupied blocks per task id, per block age (Count)
system.cpu0.icache.tags.ratioOccsTaskId::1024            1                       # Ratio of occupied blocks and all blocks, per task id (Ratio)
system.cpu0.icache.tags.tagAccesses          28588270                       # Number of tag accesses (Count)
system.cpu0.icache.tags.dataAccesses         28588270                       # Number of data accesses (Count)
system.cpu0.icache.tags.power_state.pwrStateResidencyTicks::UNDEFINED   6605079309                       # Cumulative time (in ticks) in various power states (Tick)
system.cpu0.iew.idleCycles                          0                       # Number of cycles IEW is idle (Cycle)
system.cpu0.iew.squashCycles                    19682                       # Number of cycles IEW is squashing (Cycle)
system.cpu0.iew.blockCycles                    293945                       # Number of cycles IEW is blocking (Cycle)
system.cpu0.iew.unblockCycles                  116814                       # Number of cycles IEW is unblocking (Cycle)
system.cpu0.iew.dispatchedInsts              49114373                       # Number of instructions dispatched to IQ (Count)
system.cpu0.iew.dispSquashedInsts                3468                       # Number of squashed instructions skipped by dispatch (Count)
system.cpu0.iew.dispLoadInsts                 6464207                       # Number of dispatched load instructions (Count)
system.cpu0.iew.dispStoreInsts                3149562                       # Number of dispatched store instructions (Count)
system.cpu0.iew.dispNonSpecInsts                  680                       # Number of dispatched non-speculative instructions (Count)
system.cpu0.iew.iqFullEvents                     1868                       # Number of times the IQ has become full, causing a stall (Count)
system.cpu0.iew.lsqFullEvents                  113620                       # Number of times the LSQ has become full, causing a stall (Count)
system.cpu0.iew.memOrderViolationEvents           292                       # Number of memory order violations (Count)
system.cpu0.iew.predictedTakenIncorrect         10228                       # Number of branches that were predicted taken incorrectly (Count)
system.cpu0.iew.predictedNotTakenIncorrect        10015                       # Number of branches that were predicted not taken incorrectly (Count)
system.cpu0.iew.branchMispredicts               20243                       # Number of branch mispredicts detected at execute (Count)
system.cpu0.iew.instsToCommit                48836007                       # Cumulative count of insts sent to commit (Count)
system.cpu0.iew.writebackCount               48828111                       # Cumulative count of insts written-back (Count)
system.cpu0.iew.producerInst                 35125169                       # Number of instructions producing a value (Count)
system.cpu0.iew.consumerInst                 59917776                       # Number of instructions consuming a value (Count)
system.cpu0.iew.wbRate                       2.480795                       # Insts written-back per cycle ((Count/Cycle))
system.cpu0.iew.wbFanout                     0.586223                       # Average fanout of values written-back ((Count/Count))
system.cpu0.interrupts.clk_domain.clock          5328                       # Clock period in ticks (Tick)
system.cpu0.itb_walker_cache.blockedCycles::no_mshrs            0                       # number of cycles access was blocked (Cycle)
system.cpu0.itb_walker_cache.blockedCycles::no_targets            0                       # number of cycles access was blocked (Cycle)
system.cpu0.itb_walker_cache.blockedCauses::no_mshrs            0                       # number of times access was blocked (Count)
system.cpu0.itb_walker_cache.blockedCauses::no_targets            0                       # number of times access was blocked (Count)
system.cpu0.itb_walker_cache.avgBlocked::no_mshrs          nan                       # average number of cycles each access was blocked ((Cycle/Count))
system.cpu0.itb_walker_cache.avgBlocked::no_targets          nan                       # average number of cycles each access was blocked ((Cycle/Count))
system.cpu0.itb_walker_cache.replacements            0                       # number of replacements (Count)
system.cpu0.itb_walker_cache.power_state.pwrStateResidencyTicks::UNDEFINED   6605079309                       # Cumulative time (in ticks) in various power states (Tick)
[...]
system.mem_ctrls.dram.avgMemAccLat           31650.31                       # Average memory access latency per DRAM burst ((Tick/Count))
system.mem_ctrls.dram.readRowHits               40080                       # Number of row buffer hits during reads (Count)
system.mem_ctrls.dram.writeRowHits                  0                       # Number of row buffer hits during writes (Count)
system.mem_ctrls.dram.readRowHitRate            71.98                       # Row buffer hit rate for reads (Ratio)
system.mem_ctrls.dram.writeRowHitRate             nan                       # Row buffer hit rate for writes (Ratio)
system.mem_ctrls.dram.bytesPerActivate::samples        15593                       # Bytes accessed per row activation (Byte)
system.mem_ctrls.dram.bytesPerActivate::mean   228.455333                       # Bytes accessed per row activation (Byte)
system.mem_ctrls.dram.bytesPerActivate::gmean   128.584197                       # Bytes accessed per row activation (Byte)
system.mem_ctrls.dram.bytesPerActivate::stdev   314.754205                       # Bytes accessed per row activation (Byte)
system.mem_ctrls.dram.bytesPerActivate::0-127         7352     47.15%     47.15% # Bytes accessed per row activation (Byte)
system.mem_ctrls.dram.bytesPerActivate::128-255         5387     34.55%     81.70% # Bytes accessed per row activation (Byte)
system.mem_ctrls.dram.bytesPerActivate::256-383          355      2.28%     83.97% # Bytes accessed per row activation (Byte)
system.mem_ctrls.dram.bytesPerActivate::384-511          198      1.27%     85.24% # Bytes accessed per row activation (Byte)
system.mem_ctrls.dram.bytesPerActivate::512-639          146      0.94%     86.18% # Bytes accessed per row activation (Byte)
system.mem_ctrls.dram.bytesPerActivate::640-767          120      0.77%     86.95% # Bytes accessed per row activation (Byte)
system.mem_ctrls.dram.bytesPerActivate::768-895           84      0.54%     87.49% # Bytes accessed per row activation (Byte)
system.mem_ctrls.dram.bytesPerActivate::896-1023          103      0.66%     88.15% # Bytes accessed per row activation (Byte)
system.mem_ctrls.dram.bytesPerActivate::1024-1151         1848     11.85%    100.00% # Bytes accessed per row activation (Byte)
system.mem_ctrls.dram.bytesPerActivate::total        15593                       # Bytes accessed per row activation (Byte)
system.mem_ctrls.dram.bytesRead               3563456                       # Total bytes read (Byte)
system.mem_ctrls.dram.bytesWritten                  0                       # Total bytes written (Byte)
system.mem_ctrls.dram.avgRdBW              539.502379                       # Average DRAM read bandwidth in MiBytes/s ((Byte/Second))
system.mem_ctrls.dram.avgWrBW                       0                       # Average DRAM write bandwidth in MiBytes/s ((Byte/Second))
system.mem_ctrls.dram.peakBW                 12800.00                       # Theoretical peak bandwidth in MiByte/s ((Byte/Second))
system.mem_ctrls.dram.busUtil                    4.21                       # Data bus utilization in percentage (Ratio)
system.mem_ctrls.dram.busUtilRead                4.21                       # Data bus utilization in percentage for reads (Ratio)
system.mem_ctrls.dram.busUtilWrite               0.00                       # Data bus utilization in percentage for writes (Ratio)
system.mem_ctrls.dram.pageHitRate               71.98                       # Row buffer hit rate, read and write combined (Ratio)
system.mem_ctrls.dram.power_state.pwrStateResidencyTicks::UNDEFINED   6605079309                       # Cumulative time (in ticks) in various power states (Tick)
system.mem_ctrls.dram.rank0.actEnergy        55449240                       # Energy for activate commands per rank (pJ) (Joule)
system.mem_ctrls.dram.rank0.preEnergy        29452995                       # Energy for precharge commands per rank (pJ) (Joule)
system.mem_ctrls.dram.rank0.readEnergy      197106840                       # Energy for read commands per rank (pJ) (Joule)
system.mem_ctrls.dram.rank0.writeEnergy             0                       # Energy for write commands per rank (pJ) (Joule)
system.mem_ctrls.dram.rank0.refreshEnergy 521214720.000000                       # Energy for refresh commands per rank (pJ) (Joule)
system.mem_ctrls.dram.rank0.actBackEnergy   1624891020                       # Energy for active background per rank (pJ) (Joule)
system.mem_ctrls.dram.rank0.preBackEnergy   1168021440                       # Energy for precharge background per rank (pJ) (Joule)
system.mem_ctrls.dram.rank0.actPowerDownEnergy            0                       # Energy for active power-down per rank (pJ) (Joule)
system.mem_ctrls.dram.rank0.prePowerDownEnergy            0                       # Energy for precharge power-down per rank (pJ) (Joule)
system.mem_ctrls.dram.rank0.selfRefreshEnergy            0                       # Energy for self refresh per rank (pJ) (Joule)
system.mem_ctrls.dram.rank0.totalEnergy    3596136255                       # Total energy per rank (pJ) (Joule)
system.mem_ctrls.dram.rank0.averagePower   544.450125                       # Core power per rank (mW) (Watt)
system.mem_ctrls.dram.rank0.totalIdleTime            0                       # Total Idle time Per DRAM Rank (Tick)
system.mem_ctrls.dram.rank0.pwrStateTime::IDLE   3013195286                       # Time in different power states (Tick)
system.mem_ctrls.dram.rank0.pwrStateTime::REF    220480000                       # Time in different power states (Tick)
system.mem_ctrls.dram.rank0.pwrStateTime::SREF            0                       # Time in different power states (Tick)
system.mem_ctrls.dram.rank0.pwrStateTime::PRE_PDN            0                       # Time in different power states (Tick)
system.mem_ctrls.dram.rank0.pwrStateTime::ACT   3371404023                       # Time in different power states (Tick)
system.mem_ctrls.dram.rank0.pwrStateTime::ACT_PDN            0                       # Time in different power states (Tick)
system.mem_ctrls.dram.rank1.actEnergy        55927620                       # Energy for activate commands per rank (pJ) (Joule)
system.mem_ctrls.dram.rank1.preEnergy        29722440                       # Energy for precharge commands per rank (pJ) (Joule)
system.mem_ctrls.dram.rank1.readEnergy      200441220                       # Energy for read commands per rank (pJ) (Joule)
system.mem_ctrls.dram.rank1.writeEnergy             0                       # Energy for write commands per rank (pJ) (Joule)
system.mem_ctrls.dram.rank1.refreshEnergy 521214720.000000                       # Energy for refresh commands per rank (pJ) (Joule)
system.mem_ctrls.dram.rank1.actBackEnergy   1608927030                       # Energy for active background per rank (pJ) (Joule)
system.mem_ctrls.dram.rank1.preBackEnergy   1181464800                       # Energy for precharge background per rank (pJ) (Joule)
system.mem_ctrls.dram.rank1.actPowerDownEnergy            0                       # Energy for active power-down per rank (pJ) (Joule)
system.mem_ctrls.dram.rank1.prePowerDownEnergy            0                       # Energy for precharge power-down per rank (pJ) (Joule)
system.mem_ctrls.dram.rank1.selfRefreshEnergy            0                       # Energy for self refresh per rank (pJ) (Joule)
system.mem_ctrls.dram.rank1.totalEnergy    3597697830                       # Total energy per rank (pJ) (Joule)
system.mem_ctrls.dram.rank1.averagePower   544.686545                       # Core power per rank (mW) (Watt)
system.mem_ctrls.dram.rank1.totalIdleTime            0                       # Total Idle time Per DRAM Rank (Tick)
system.mem_ctrls.dram.rank1.pwrStateTime::IDLE   3048083560                       # Time in different power states (Tick)
system.mem_ctrls.dram.rank1.pwrStateTime::REF    220480000                       # Time in different power states (Tick)
system.mem_ctrls.dram.rank1.pwrStateTime::SREF            0                       # Time in different power states (Tick)
system.mem_ctrls.dram.rank1.pwrStateTime::PRE_PDN            0                       # Time in different power states (Tick)
system.mem_ctrls.dram.rank1.pwrStateTime::ACT   3336515749                       # Time in different power states (Tick)
system.mem_ctrls.dram.rank1.pwrStateTime::ACT_PDN            0                       # Time in different power states (Tick)
system.mem_ctrls.power_state.pwrStateResidencyTicks::UNDEFINED   6605079309                       # Cumulative time (in ticks) in various power states (Tick)
system.membus.transDist::ReadResp                5251                       # Transaction distribution (Count)
system.membus.transDist::UpgradeReq              2229                       # Transaction distribution (Count)
system.membus.transDist::ReadExReq              54631                       # Transaction distribution (Count)
system.membus.transDist::ReadExResp             50428                       # Transaction distribution (Count)
system.membus.transDist::ReadSharedReq           5251                       # Transaction distribution (Count)
system.membus.pktCount_system.l3.mem_side_port::system.mem_ctrls.port       117790                       # Packet count per connected requestor and responder (Count)
system.membus.pktCount_system.l3.mem_side_port::total       117790                       # Packet count per connected requestor and responder (Count)
system.membus.pktCount::total                  117790                       # Packet count per connected requestor and responder (Count)
system.membus.pktSize_system.l3.mem_side_port::system.mem_ctrls.port      3563456                       # Cumulative packet size per connected requestor and responder (Byte)
system.membus.pktSize_system.l3.mem_side_port::total      3563456                       # Cumulative packet size per connected requestor and responder (Byte)
system.membus.pktSize::total                  3563456                       # Cumulative packet size per connected requestor and responder (Byte)
system.membus.snoops                             6432                       # Total snoops (Count)
system.membus.snoopTraffic                          0                       # Total snoop traffic (Byte)
system.membus.snoopFanout::samples              62111                       # Request fanout histogram (Count)
system.membus.snoopFanout::mean                     0                       # Request fanout histogram (Count)
system.membus.snoopFanout::stdev                    0                       # Request fanout histogram (Count)
system.membus.snoopFanout::underflows               0      0.00%      0.00% # Request fanout histogram (Count)
system.membus.snoopFanout::0                    62111    100.00%    100.00% # Request fanout histogram (Count)
system.membus.snoopFanout::1                        0      0.00%    100.00% # Request fanout histogram (Count)
system.membus.snoopFanout::overflows                0      0.00%    100.00% # Request fanout histogram (Count)
system.membus.snoopFanout::min_value                0                       # Request fanout histogram (Count)
system.membus.snoopFanout::max_value                0                       # Request fanout histogram (Count)
system.membus.snoopFanout::total                62111                       # Request fanout histogram (Count)
system.membus.power_state.pwrStateResidencyTicks::UNDEFINED   6605079309                       # Cumulative time (in ticks) in various power states (Tick)
system.membus.reqLayer8.occupancy            84474734                       # Layer occupancy (ticks) (Tick)
system.membus.reqLayer8.utilization               0.0                       # Layer utilization (Ratio)
system.membus.respLayer1.occupancy          297942230                       # Layer occupancy (ticks) (Tick)
system.membus.respLayer1.utilization              0.0                       # Layer utilization (Ratio)
system.membus.snoop_filter.totRequests          62111                       # Total number of requests made to the snoop filter. (Count)
system.membus.snoop_filter.hitSingleRequests         6432                       # Number of requests hitting in the snoop filter with a single holder of the requested data. (Count)
system.membus.snoop_filter.hitMultiRequests            0                       # Number of requests hitting in the snoop filter with multiple (>1) holders of the requested data. (Count)
system.membus.snoop_filter.totSnoops                0                       # Total number of snoops made to the snoop filter. (Count)
system.membus.snoop_filter.hitSingleSnoops            0                       # Number of snoops hitting in the snoop filter with a single holder of the requested data. (Count)
system.membus.snoop_filter.hitMultiSnoops            0                       # Number of snoops hitting in the snoop filter with multiple (>1) holders of the requested data. (Count)
system.tol3bus.transDist::ReadResp              60151                       # Transaction distribution (Count)
system.tol3bus.transDist::ReadRespWithInvalidate           18                       # Transaction distribution (Count)
system.tol3bus.transDist::WritebackDirty         9504                       # Transaction distribution (Count)
system.tol3bus.transDist::CleanEvict             3173                       # Transaction distribution (Count)
system.tol3bus.transDist::UpgradeReq            16109                       # Transaction distribution (Count)
system.tol3bus.transDist::UpgradeResp           16109                       # Transaction distribution (Count)
system.tol3bus.transDist::ReadExReq             61993                       # Transaction distribution (Count)
system.tol3bus.transDist::ReadExResp            61993                       # Transaction distribution (Count)
system.tol3bus.transDist::ReadSharedReq         60169                       # Transaction distribution (Count)
system.tol3bus.pktCount_system.cpu0.l2cache.mem_side_port::system.l3.cpu_side_port       118248                       # Packet count per connected requestor and responder (Count)
system.tol3bus.pktCount_system.cpu1.l2cache.mem_side_port::system.l3.cpu_side_port        37239                       # Packet count per connected requestor and responder (Count)
system.tol3bus.pktCount_system.cpu2.l2cache.mem_side_port::system.l3.cpu_side_port        37085                       # Packet count per connected requestor and responder (Count)
system.tol3bus.pktCount_system.cpu3.l2cache.mem_side_port::system.l3.cpu_side_port        37017                       # Packet count per connected requestor and responder (Count)
system.tol3bus.pktCount::total                 229589                       # Packet count per connected requestor and responder (Count)
system.tol3bus.pktSize_system.cpu0.l2cache.mem_side_port::system.l3.cpu_side_port      3478720                       # Cumulative packet size per connected requestor and responder (Byte)
system.tol3bus.pktSize_system.cpu1.l2cache.mem_side_port::system.l3.cpu_side_port       429376                       # Cumulative packet size per connected requestor and responder (Byte)
system.tol3bus.pktSize_system.cpu2.l2cache.mem_side_port::system.l3.cpu_side_port       425920                       # Cumulative packet size per connected requestor and responder (Byte)
system.tol3bus.pktSize_system.cpu3.l2cache.mem_side_port::system.l3.cpu_side_port       418944                       # Cumulative packet size per connected requestor and responder (Byte)
system.tol3bus.pktSize::total                 4752960                       # Cumulative packet size per connected requestor and responder (Byte)
system.tol3bus.snoops                           59630                       # Total snoops (Count)
system.tol3bus.snoopTraffic                   3673664                       # Total snoop traffic (Byte)
system.tol3bus.snoopFanout::samples            138271                       # Request fanout histogram (Count)
system.tol3bus.snoopFanout::mean             0.614973                       # Request fanout histogram (Count)
system.tol3bus.snoopFanout::stdev            0.602326                       # Request fanout histogram (Count)
system.tol3bus.snoopFanout::underflows              0      0.00%      0.00% # Request fanout histogram (Count)
system.tol3bus.snoopFanout::0                   61304     44.34%     44.34% # Request fanout histogram (Count)
system.tol3bus.snoopFanout::1                   69547     50.30%     94.63% # Request fanout histogram (Count)
system.tol3bus.snoopFanout::2                    6774      4.90%     99.53% # Request fanout histogram (Count)
system.tol3bus.snoopFanout::3                     646      0.47%    100.00% # Request fanout histogram (Count)
system.tol3bus.snoopFanout::4                       0      0.00%    100.00% # Request fanout histogram (Count)
system.tol3bus.snoopFanout::overflows               0      0.00%    100.00% # Request fanout histogram (Count)
system.tol3bus.snoopFanout::min_value               0                       # Request fanout histogram (Count)
system.tol3bus.snoopFanout::max_value               3                       # Request fanout histogram (Count)
system.tol3bus.snoopFanout::total              138271                       # Request fanout histogram (Count)
system.tol3bus.power_state.pwrStateResidencyTicks::UNDEFINED   6605079309                       # Cumulative time (in ticks) in various power states (Tick)
system.tol3bus.reqLayer0.occupancy           56598668                       # Layer occupancy (ticks) (Tick)
system.tol3bus.reqLayer0.utilization              0.0                       # Layer utilization (Ratio)
system.tol3bus.respLayer0.occupancy          54124800                       # Layer occupancy (ticks) (Tick)
system.tol3bus.respLayer0.utilization             0.0                       # Layer utilization (Ratio)
system.tol3bus.respLayer1.occupancy          24492445                       # Layer occupancy (ticks) (Tick)
system.tol3bus.respLayer1.utilization             0.0                       # Layer utilization (Ratio)
system.tol3bus.respLayer2.occupancy          24398171                       # Layer occupancy (ticks) (Tick)
system.tol3bus.respLayer2.utilization             0.0                       # Layer utilization (Ratio)
system.tol3bus.respLayer3.occupancy          24446105                       # Layer occupancy (ticks) (Tick)
system.tol3bus.respLayer3.utilization             0.0                       # Layer utilization (Ratio)
system.tol3bus.snoop_filter.totRequests        150948                       # Total number of requests made to the snoop filter. (Count)
system.tol3bus.snoop_filter.hitSingleRequests        60540                       # Number of requests hitting in the snoop filter with a single holder of the requested data. (Count)
system.tol3bus.snoop_filter.hitMultiRequests        29597                       # Number of requests hitting in the snoop filter with multiple (>1) holders of the requested data. (Count)
system.tol3bus.snoop_filter.totSnoops               0                       # Total number of snoops made to the snoop filter. (Count)
system.tol3bus.snoop_filter.hitSingleSnoops            0                       # Number of snoops hitting in the snoop filter with a single holder of the requested data. (Count)
system.tol3bus.snoop_filter.hitMultiSnoops            0                       # Number of snoops hitting in the snoop filter with multiple (>1) holders of the requested data. (Count)
system.voltage_domain.voltage                       1                       # Voltage in Volts (Volt)
system.workload.inst.arm                            0                       # number of arm instructions executed (Count)
system.workload.inst.quiesce                        0                       # number of quiesce instructions executed (Count)

---------- End Simulation Statistics   ----------
