
---------- Begin Simulation Statistics ----------
simSeconds                                   0.061925                       # Number of seconds simulated (Second)
simTicks                                  61925250096                       # Number of ticks simulated (Tick)
finalTick                                 61925250096                       # Number of ticks from beginning of simulation (restored from checkpoints and never reset) (Tick)
simFreq                                  1000000000000                       # The number of ticks per simulated second ((Tick/Second))
hostSeconds                                   1783.88                       # Real time elapsed on the host (Second)
hostTickRate                                 34713839                       # The number of ticks simulated per host second (ticks/s) ((Tick/Second))
hostMemory                                     809752                       # Number of bytes of host memory used (Byte)
simInsts                                    434933434                       # Number of instructions simulated (Count)
simOps                                      807750413                       # Number of ops (including micro ops) simulated (Count)
hostInstRate                                   243813                       # Simulator instruction rate (inst/s) ((Count/Second))
hostOpRate                                     452806                       # Simulator op (including micro ops) rate (op/s) ((Count/Second))
system.clk_domain.clock                          1000                       # Clock period in ticks (Tick)
system.cpu0.numCycles                       177817607                       # Number of cpu cycles simulated (Cycle)
system.cpu0.numWorkItemsStarted                     0                       # Number of work items this cpu started (Count)
system.cpu0.numWorkItemsCompleted                   0                       # Number of work items this cpu completed (Count)
system.cpu0.instsAdded                      465396521                       # Number of instructions added to the IQ (excludes non-spec) (Count)
system.cpu0.nonSpecInstsAdded                    4229                       # Number of non-speculative instructions added to the IQ (Count)
system.cpu0.instsIssued                     464579373                       # Number of instructions issued (Count)
system.cpu0.squashedInstsIssued                  5005                       # Number of squashed instructions issued (Count)
system.cpu0.squashedInstsExamined             8299983                       # Number of squashed instructions iterated over during squash; mainly for profiling (Count)
system.cpu0.squashedOperandsExamined          7970036                       # Number of squashed operands that are examined and possibly removed from graph (Count)
system.cpu0.squashedNonSpecRemoved               1685                       # Number of squashed non-spec instructions that were removed (Count)
system.cpu0.numIssuedDist::samples          177573375                       # Number of insts issued each cycle (Count)
system.cpu0.numIssuedDist::mean              2.616267                       # Number of insts issued each cycle (Count)
system.cpu0.numIssuedDist::stdev             1.592674                       # Number of insts issued each cycle (Count)
system.cpu0.numIssuedDist::underflows               0      0.00%      0.00% # Number of insts issued each cycle (Count)
system.cpu0.numIssuedDist::0                 12976076      7.31%      7.31% # Number of insts issued each cycle (Count)
system.cpu0.numIssuedDist::1                 36213335     20.39%     27.70% # Number of insts issued each cycle (Count)
system.cpu0.numIssuedDist::2                 39627241     22.32%     50.02% # Number of insts issued each cycle (Count)
system.cpu0.numIssuedDist::3                 33273539     18.74%     68.75% # Number of insts issued each cycle (Count)
system.cpu0.numIssuedDist::4                 41480596     23.36%     92.11% # Number of insts issued each cycle (Count)
system.cpu0.numIssuedDist::5                  5038690      2.84%     94.95% # Number of insts issued each cycle (Count)
system.cpu0.numIssuedDist::6                  5704560      3.21%     98.16% # Number of insts issued each cycle (Count)
system.cpu0.numIssuedDist::7                  2126959      1.20%     99.36% # Number of insts issued each cycle (Count)
system.cpu0.numIssuedDist::8                  1132379      0.64%    100.00% # Number of insts issued each cycle (Count)
system.cpu0.numIssuedDist::overflows                0      0.00%    100.00% # Number of insts issued each cycle (Count)
system.cpu0.numIssuedDist::min_value                0                       # Number of insts issued each cycle (Count)
system.cpu0.numIssuedDist::max_value                8                       # Number of insts issued each cycle (Count)
system.cpu0.numIssuedDist::total            177573375                       # Number of insts issued each cycle (Count)
system.cpu0.statFuBusy::No_OpClass                  0      0.00%      0.00% # attempts to use FU when none available (Count)
system.cpu0.statFuBusy::IntAlu                1096012     87.54%     87.54% # attempts to use FU when none available (Count)
system.cpu0.statFuBusy::IntMult                     0      0.00%     87.54% # attempts to use FU when none available (Count)
system.cpu0.statFuBusy::IntDiv                      0      0.00%     87.54% # attempts to use FU when none available (Count)
system.cpu0.statFuBusy::FloatAdd                    0      0.00%     87.54% # attempts to use FU when none available (Count)
system.cpu0.statFuBusy::FloatCmp                    0      0.00%     87.54% # attempts to use FU when none available (Count)
system.cpu0.statFuBusy::FloatCvt                    0      0.00%     87.54% # attempts to use FU when none available (Count)
system.cpu0.statFuBusy::FloatMult                   0      0.00%     87.54% # attempts to use FU when none available (Count)
system.cpu0.statFuBusy::FloatMultAcc                0      0.00%     87.54% # attempts to use FU when none available (Count)
system.cpu0.statFuBusy::FloatDiv                    0      0.00%     87.54% # attempts to use FU when none available (Count)
system.cpu0.statFuBusy::FloatMisc                   0      0.00%     87.54% # attempts to use FU when none available (Count)
system.cpu0.statFuBusy::FloatSqrt                   0      0.00%     87.54% # attempts to use FU when none available (Count)
system.cpu0.statFuBusy::SimdAdd                     1      0.00%     87.54% # attempts to use FU when none available (Count)
system.cpu0.statFuBusy::SimdAddAcc                  0      0.00%     87.54% # attempts to use FU when none available (Count)
system.cpu0.statFuBusy::SimdAlu                    53      0.00%     87.55% # attempts to use FU when none available (Count)
system.cpu0.statFuBusy::SimdCmp                     3      0.00%     87.55% # attempts to use FU when none available (Count)
system.cpu0.statFuBusy::SimdCvt                   141      0.01%     87.56% # attempts to use FU when none available (Count)
system.cpu0.statFuBusy::SimdMisc                   13      0.00%     87.56% # attempts to use FU when none available (Count)
system.cpu0.statFuBusy::SimdMult                    0      0.00%     87.56% # attempts to use FU when none available (Count)
system.cpu0.statFuBusy::SimdMultAcc                 0      0.00%     87.56% # attempts to use FU when none available (Count)
system.cpu0.statFuBusy::SimdShift                  26      0.00%     87.56% # attempts to use FU when none available (Count)
system.cpu0.statFuBusy::SimdShiftAcc                0      0.00%     87.56% # attempts to use FU when none available (Count)
system.cpu0.statFuBusy::SimdDiv                     0      0.00%     87.56% # attempts to use FU when none available (Count)
system.cpu0.statFuBusy::SimdSqrt                    0      0.00%     87.56% # attempts to use FU when none available (Count)
system.cpu0.statFuBusy::SimdFloatAdd               94      0.01%     87.57% # attempts to use FU when none available (Count)
system.cpu0.statFuBusy::SimdFloatAlu                0      0.00%     87.57% # attempts to use FU when none available (Count)
system.cpu0.statFuBusy::SimdFloatCmp                0      0.00%     87.57% # attempts to use FU when none available (Count)
system.cpu0.statFuBusy::SimdFloatCvt                0      0.00%     87.57% # attempts to use FU when none available (Count)
system.cpu0.statFuBusy::SimdFloatDiv                0      0.00%     87.57% # attempts to use FU when none available (Count)
system.cpu0.statFuBusy::SimdFloatMisc               0      0.00%     87.57% # attempts to use FU when none available (Count)
system.cpu0.statFuBusy::SimdFloatMult          140450     11.22%     98.79% # attempts to use FU when none available (Count)
system.cpu0.statFuBusy::SimdFloatMultAcc            0      0.00%     98.79% # attempts to use FU when none available (Count)
system.cpu0.statFuBusy::SimdFloatSqrt               0      0.00%     98.79% # attempts to use FU when none available (Count)
system.cpu0.statFuBusy::SimdReduceAdd               0      0.00%     98.79% # attempts to use FU when none available (Count)
system.cpu0.statFuBusy::SimdReduceAlu               0      0.00%     98.79% # attempts to use FU when none available (Count)
system.cpu0.statFuBusy::SimdReduceCmp               0      0.00%     98.79% # attempts to use FU when none available (Count)
system.cpu0.statFuBusy::SimdFloatReduceAdd            0      0.00%     98.79% # attempts to use FU when none available (Count)
system.cpu0.statFuBusy::SimdFloatReduceCmp            0      0.00%     98.79% # attempts to use FU when none available (Count)
system.cpu0.statFuBusy::SimdAes                     0      0.00%     98.79% # attempts to use FU when none available (Count)
system.cpu0.statFuBusy::SimdAesMix                  0      0.00%     98.79% # attempts to use FU when none available (Count)
system.cpu0.statFuBusy::SimdSha1Hash                0      0.00%     98.79% # attempts to use FU when none available (Count)
system.cpu0.statFuBusy::SimdSha1Hash2               0      0.00%     98.79% # attempts to use FU when none available (Count)
system.cpu0.statFuBusy::SimdSha256Hash              0      0.00%     98.79% # attempts to use FU when none available (Count)
system.cpu0.statFuBusy::SimdSha256Hash2             0      0.00%     98.79% # attempts to use FU when none available (Count)
system.cpu0.statFuBusy::SimdShaSigma2               0      0.00%     98.79% # attempts to use FU when none available (Count)
system.cpu0.statFuBusy::SimdShaSigma3               0      0.00%     98.79% # attempts to use FU when none available (Count)
system.cpu0.statFuBusy::SimdPredAlu                 0      0.00%     98.79% # attempts to use FU when none available (Count)
system.cpu0.statFuBusy::MemRead                  7896      0.63%     99.42% # attempts to use FU when none available (Count)
system.cpu0.statFuBusy::MemWrite                 6878      0.55%     99.97% # attempts to use FU when none available (Count)
system.cpu0.statFuBusy::FloatMemRead              301      0.02%     99.99% # attempts to use FU when none available (Count)
system.cpu0.statFuBusy::FloatMemWrite             126      0.01%    100.00% # attempts to use FU when none available (Count)
system.cpu0.statFuBusy::IprAccess                   0      0.00%    100.00% # attempts to use FU when none available (Count)
system.cpu0.statFuBusy::InstPrefetch                0      0.00%    100.00% # attempts to use FU when none available (Count)
system.cpu0.statIssuedInstType_0::No_OpClass      2650613      0.57%      0.57% # Number of instructions issued per FU type, per thread (Count)
system.cpu0.statIssuedInstType_0::IntAlu    292681571     63.00%     63.57% # Number of instructions issued per FU type, per thread (Count)
system.cpu0.statIssuedInstType_0::IntMult      1329145      0.29%     63.86% # Number of instructions issued per FU type, per thread (Count)
system.cpu0.statIssuedInstType_0::IntDiv     14798187      3.19%     67.04% # Number of instructions issued per FU type, per thread (Count)
system.cpu0.statIssuedInstType_0::FloatAdd     24992644      5.38%     72.42% # Number of instructions issued per FU type, per thread (Count)
system.cpu0.statIssuedInstType_0::FloatCmp            0      0.00%     72.42% # Number of instructions issued per FU type, per thread (Count)
system.cpu0.statIssuedInstType_0::FloatCvt          192      0.00%     72.42% # Number of instructions issued per FU type, per thread (Count)
system.cpu0.statIssuedInstType_0::FloatMult            0      0.00%     72.42% # Number of instructions issued per FU type, per thread (Count)
system.cpu0.statIssuedInstType_0::FloatMultAcc            0      0.00%     72.42% # Number of instructions issued per FU type, per thread (Count)
system.cpu0.statIssuedInstType_0::FloatDiv            0      0.00%     72.42% # Number of instructions issued per FU type, per thread (Count)
system.cpu0.statIssuedInstType_0::FloatMisc            0      0.00%     72.42% # Number of instructions issued per FU type, per thread (Count)
system.cpu0.statIssuedInstType_0::FloatSqrt            0      0.00%     72.42% # Number of instructions issued per FU type, per thread (Count)
system.cpu0.statIssuedInstType_0::SimdAdd         1488      0.00%     72.42% # Number of instructions issued per FU type, per thread (Count)
system.cpu0.statIssuedInstType_0::SimdAddAcc            0      0.00%     72.42% # Number of instructions issued per FU type, per thread (Count)
system.cpu0.statIssuedInstType_0::SimdAlu      3416841      0.74%     73.16% # Number of instructions issued per FU type, per thread (Count)
system.cpu0.statIssuedInstType_0::SimdCmp           34      0.00%     73.16% # Number of instructions issued per FU type, per thread (Count)
system.cpu0.statIssuedInstType_0::SimdCvt         3989      0.00%     73.16% # Number of instructions issued per FU type, per thread (Count)
system.cpu0.statIssuedInstType_0::SimdMisc       265254      0.06%     73.21% # Number of instructions issued per FU type, per thread (Count)
system.cpu0.statIssuedInstType_0::SimdMult            0      0.00%     73.21% # Number of instructions issued per FU type, per thread (Count)
system.cpu0.statIssuedInstType_0::SimdMultAcc            0      0.00%     73.21% # Number of instructions issued per FU type, per thread (Count)
system.cpu0.statIssuedInstType_0::SimdShift         1393      0.00%     73.21% # Number of instructions issued per FU type, per thread (Count)
system.cpu0.statIssuedInstType_0::SimdShiftAcc            0      0.00%     73.21% # Number of instructions issued per FU type, per thread (Count)
system.cpu0.statIssuedInstType_0::SimdDiv            0      0.00%     73.21% # Number of instructions issued per FU type, per thread (Count)
system.cpu0.statIssuedInstType_0::SimdSqrt            0      0.00%     73.21% # Number of instructions issued per FU type, per thread (Count)
system.cpu0.statIssuedInstType_0::SimdFloatAdd     22045760      4.75%     77.96% # Number of instructions issued per FU type, per thread (Count)
system.cpu0.statIssuedInstType_0::SimdFloatAlu            0      0.00%     77.96% # Number of instructions issued per FU type, per thread (Count)
system.cpu0.statIssuedInstType_0::SimdFloatCmp            0      0.00%     77.96% # Number of instructions issued per FU type, per thread (Count)
system.cpu0.statIssuedInstType_0::SimdFloatCvt       262361      0.06%     78.02% # Number of instructions issued per FU type, per thread (Count)
system.cpu0.statIssuedInstType_0::SimdFloatDiv       330144      0.07%     78.09% # Number of instructions issued per FU type, per thread (Count)
system.cpu0.statIssuedInstType_0::SimdFloatMisc            0      0.00%     78.09% # Number of instructions issued per FU type, per thread (Count)
system.cpu0.statIssuedInstType_0::SimdFloatMult     21805352      4.69%     82.78% # Number of instructions issued per FU type, per thread (Count)
system.cpu0.statIssuedInstType_0::SimdFloatMultAcc            0      0.00%     82.78% # Number of instructions issued per FU type, per thread (Count)
system.cpu0.statIssuedInstType_0::SimdFloatSqrt            4      0.00%     82.78% # Number of instructions issued per FU type, per thread (Count)
system.cpu0.statIssuedInstType_0::SimdReduceAdd            0      0.00%     82.78% # Number of instructions issued per FU type, per thread (Count)
system.cpu0.statIssuedInstType_0::SimdReduceAlu            0      0.00%     82.78% # Number of instructions issued per FU type, per thread (Count)
system.cpu0.statIssuedInstType_0::SimdReduceCmp            0      0.00%     82.78% # Number of instructions issued per FU type, per thread (Count)
system.cpu0.statIssuedInstType_0::SimdFloatReduceAdd            0      0.00%     82.78% # Number of instructions issued per FU type, per thread (Count)
system.cpu0.statIssuedInstType_0::SimdFloatReduceCmp            0      0.00%     82.78% # Number of instructions issued per FU type, per thread (Count)
system.cpu0.statIssuedInstType_0::SimdAes            0      0.00%     82.78% # Number of instructions issued per FU type, per thread (Count)
system.cpu0.statIssuedInstType_0::SimdAesMix            0      0.00%     82.78% # Number of instructions issued per FU type, per thread (Count)
system.cpu0.statIssuedInstType_0::SimdSha1Hash            0      0.00%     82.78% # Number of instructions issued per FU type, per thread (Count)
system.cpu0.statIssuedInstType_0::SimdSha1Hash2            0      0.00%     82.78% # Number of instructions issued per FU type, per thread (Count)
system.cpu0.statIssuedInstType_0::SimdSha256Hash            0      0.00%     82.78% # Number of instructions issued per FU type, per thread (Count)
system.cpu0.statIssuedInstType_0::SimdSha256Hash2            0      0.00%     82.78% # Number of instructions issued per FU type, per thread (Count)
system.cpu0.statIssuedInstType_0::SimdShaSigma2            0      0.00%     82.78% # Number of instructions issued per FU type, per thread (Count)
system.cpu0.statIssuedInstType_0::SimdShaSigma3            0      0.00%     82.78% # Number of instructions issued per FU type, per thread (Count)
system.cpu0.statIssuedInstType_0::SimdPredAlu            0      0.00%     82.78% # Number of instructions issued per FU type, per thread (Count)
system.cpu0.statIssuedInstType_0::MemRead      7774997      1.67%     84.45% # Number of instructions issued per FU type, per thread (Count)
system.cpu0.statIssuedInstType_0::MemWrite      2493534      0.54%     84.99% # Number of instructions issued per FU type, per thread (Count)
system.cpu0.statIssuedInstType_0::FloatMemRead     47346351     10.19%     95.18% # Number of instructions issued per FU type, per thread (Count)
system.cpu0.statIssuedInstType_0::FloatMemWrite     22379519      4.82%    100.00% # Number of instructions issued per FU type, per thread (Count)
system.cpu0.statIssuedInstType_0::IprAccess            0      0.00%    100.00% # Number of instructions issued per FU type, per thread (Count)
system.cpu0.statIssuedInstType_0::InstPrefetch            0      0.00%    100.00% # Number of instructions issued per FU type, per thread (Count)
system.cpu0.statIssuedInstType_0::total     464579373                       # Number of instructions issued per FU type, per thread (Count)
system.cpu0.issueRate                        2.612674                       # Inst issue rate ((Count/Cycle))
system.cpu0.fuBusy                            1251994                       # FU busy when requested (Count)
system.cpu0.fuBusyRate                       0.002695                       # FU busy rate (busy events/executed inst) ((Count/Count))
system.cpu0.intInstQueueReads               822142841                       # Number of integer instruction queue reads (Count)
system.cpu0.intInstQueueWrites              326730067                       # Number of integer instruction queue writes (Count)
system.cpu0.intInstQueueWakeupAccesses      320217370                       # Number of integer instruction queue wakeup accesses (Count)
system.cpu0.fpInstQueueReads                285846279                       # Number of floating instruction queue reads (Count)
system.cpu0.fpInstQueueWrites               146972313                       # Number of floating instruction queue writes (Count)
system.cpu0.fpInstQueueWakeupAccesses       139963986                       # Number of floating instruction queue wakeup accesses (Count)
system.cpu0.vecInstQueueReads                       0                       # Number of vector instruction queue reads (Count)
system.cpu0.vecInstQueueWrites                      0                       # Number of vector instruction queue writes (Count)
system.cpu0.vecInstQueueWakeupAccesses              0                       # Number of vector instruction queue wakeup accesses (Count)
system.cpu0.intAluAccesses                  320187287                       # Number of integer alu accesses (Count)
system.cpu0.fpAluAccesses                   142993467                       # Number of floating point alu accesses (Count)
system.cpu0.vecAluAccesses                          0                       # Number of vector alu accesses (Count)
system.cpu0.numInsts                        461585088                       # Number of executed instructions (Count)
system.cpu0.numLoadInsts                     55016120                       # Number of load instructions executed (Count)
system.cpu0.numSquashedInsts                  2994285                       # Number of squashed instructions skipped in execute (Count)
system.cpu0.numSwp                                  0                       # Number of swp insts executed (Count)
system.cpu0.numNop                                  0                       # Number of nop insts executed (Count)
system.cpu0.numRefs                          79887319                       # Number of memory reference insts executed (Count)
system.cpu0.numBranches                      31556085                       # Number of branches executed (Count)
system.cpu0.numStoreInsts                    24871199                       # Number of stores executed (Count)
system.cpu0.numRate                          2.595835                       # Inst execution rate ((Count/Cycle))
system.cpu0.timesIdled                           1376                       # Number of times that the entire CPU went into an idle state and unscheduled itself (Count)
system.cpu0.idleCycles                         244232                       # Total number of cycles that the CPU has spent unscheduled due to idling (Cycle)
system.cpu0.quiesceCycles                     8144106                       # Total number of cycles that CPU has spent quiesced or waiting for an interrupt (Cycle)
system.cpu0.committedInsts                  231832397                       # Number of Instructions Simulated (Count)
system.cpu0.committedOps                    457100761                       # Number of Ops (including micro ops) Simulated (Count)
system.cpu0.cpi                              0.767009                       # CPI: Cycles Per Instruction ((Cycle/Count))
system.cpu0.totalCpi                         0.767009                       # CPI: Total CPI of All Threads ((Cycle/Count))
system.cpu0.ipc                              1.303765                       # IPC: Instructions Per Cycle ((Count/Cycle))
system.cpu0.totalIpc                         1.303765                       # IPC: Total IPC of All Threads ((Count/Cycle))
system.cpu0.intRegfileReads                 522534632                       # Number of integer regfile reads (Count)
system.cpu0.intRegfileWrites                279445709                       # Number of integer regfile writes (Count)
system.cpu0.fpRegfileReads                  162523902                       # Number of floating regfile reads (Count)
system.cpu0.fpRegfileWrites                 117666707                       # Number of floating regfile writes (Count)
system.cpu0.ccRegfileReads                  251569955                       # number of cc regfile reads (Count)
system.cpu0.ccRegfileWrites                 181764487                       # number of cc regfile writes (Count)
system.cpu0.miscRegfileReads                140708850                       # number of misc regfile reads (Count)
system.cpu0.miscRegfileWrites                     108                       # number of misc regfile writes (Count)
system.cpu0.MemDepUnit__0.insertedLoads      55251025                       # Number of loads inserted to the mem dependence unit. (Count)
system.cpu0.MemDepUnit__0.insertedStores     24965633                       # Number of stores inserted to the mem dependence unit. (Count)
system.cpu0.MemDepUnit__0.conflictingLoads      5817595                       # Number of conflicting loads. (Count)
system.cpu0.MemDepUnit__0.conflictingStores      5059889                       # Number of conflicting stores. (Count)
system.cpu0.MemDepUnit__1.insertedLoads             0                       # Number of loads inserted to the mem dependence unit. (Count)
system.cpu0.MemDepUnit__1.insertedStores            0                       # Number of stores inserted to the mem dependence unit. (Count)
system.cpu0.MemDepUnit__1.conflictingLoads            0                       # Number of conflicting loads. (Count)
system.cpu0.MemDepUnit__1.conflictingStores            0                       # Number of conflicting stores. (Count)
system.cpu0.MemDepUnit__2.insertedLoads             0                       # Number of loads inserted to the mem dependence unit. (Count)
system.cpu0.MemDepUnit__2.insertedStores            0                       # Number of stores inserted to the mem dependence unit. (Count)
system.cpu0.MemDepUnit__2.conflictingLoads            0                       # Number of conflicting loads. (Count)
system.cpu0.MemDepUnit__2.conflictingStores            0                       # Number of conflicting stores. (Count)
system.cpu0.MemDepUnit__3.insertedLoads             0                       # Number of loads inserted to the mem dependence unit. (Count)
system.cpu0.MemDepUnit__3.insertedStores            0                       # Number of stores inserted to the mem dependence unit. (Count)
system.cpu0.MemDepUnit__3.conflictingLoads            0                       # Number of conflicting loads. (Count)
system.cpu0.MemDepUnit__3.conflictingStores            0                       # Number of conflicting stores. (Count)
system.cpu0.branchPred.lookups               33210769                       # Number of BP lookups (Count)
system.cpu0.branchPred.condPredicted         30808004                       # Number of conditional branches predicted (Count)
system.cpu0.branchPred.condIncorrect          1449016                       # Number of conditional branches incorrect (Count)
system.cpu0.branchPred.BTBLookups            26439813                       # Number of BTB lookups (Count)
system.cpu0.branchPred.BTBHits               26436393                       # Number of BTB hits (Count)
system.cpu0.branchPred.BTBHitRatio           0.999871                       # BTB Hit Ratio (Ratio)
system.cpu0.branchPred.RASUsed                 796782                       # Number of times the RAS was used to get a target. (Count)
system.cpu0.branchPred.RASIncorrect                 9                       # Number of incorrect RAS predictions. (Count)
system.cpu0.branchPred.indirectLookups         267520                       # Number of indirect predictor lookups. (Count)
system.cpu0.branchPred.indirectHits            263573                       # Number of indirect target hits. (Count)
system.cpu0.branchPred.indirectMisses            3947                       # Number of indirect misses. (Count)
system.cpu0.branchPred.indirectMispredicted          737                       # Number of mispredicted indirect branches. (Count)
system.cpu0.commit.commitSquashedInsts        8270701                       # The number of squashed insts skipped by commit (Count)
system.cpu0.commit.commitNonSpecStalls           2544                       # The number of times commit has been forced to stall to communicate backwards (Count)
system.cpu0.commit.branchMispredicts          1448658                       # The number of times a branch was mispredicted (Count)
system.cpu0.commit.numCommittedDist::samples    175845766                       # Number of insts commited each cycle (Count)
system.cpu0.commit.numCommittedDist::mean     2.599441                       # Number of insts commited each cycle (Count)
system.cpu0.commit.numCommittedDist::stdev     2.418614                       # Number of insts commited each cycle (Count)
system.cpu0.commit.numCommittedDist::underflows            0      0.00%      0.00% # Number of insts commited each cycle (Count)
system.cpu0.commit.numCommittedDist::0       20536349     11.68%     11.68% # Number of insts commited each cycle (Count)
system.cpu0.commit.numCommittedDist::1       73194846     41.62%     53.30% # Number of insts commited each cycle (Count)
system.cpu0.commit.numCommittedDist::2       18219973     10.36%     63.66% # Number of insts commited each cycle (Count)
system.cpu0.commit.numCommittedDist::3        6435651      3.66%     67.32% # Number of insts commited each cycle (Count)
system.cpu0.commit.numCommittedDist::4       20879601     11.87%     79.20% # Number of insts commited each cycle (Count)
system.cpu0.commit.numCommittedDist::5        3660726      2.08%     81.28% # Number of insts commited each cycle (Count)
system.cpu0.commit.numCommittedDist::6       17825598     10.14%     91.42% # Number of insts commited each cycle (Count)
system.cpu0.commit.numCommittedDist::7        1360782      0.77%     92.19% # Number of insts commited each cycle (Count)
system.cpu0.commit.numCommittedDist::8       13732240      7.81%    100.00% # Number of insts commited each cycle (Count)
system.cpu0.commit.numCommittedDist::overflows            0      0.00%    100.00% # Number of insts commited each cycle (Count)
system.cpu0.commit.numCommittedDist::min_value            0                       # Number of insts commited each cycle (Count)
system.cpu0.commit.numCommittedDist::max_value            8                       # Number of insts commited each cycle (Count)
system.cpu0.commit.numCommittedDist::total    175845766                       # Number of insts commited each cycle (Count)
system.cpu0.commit.instsCommitted           231832397                       # Number of instructions committed (Count)
system.cpu0.commit.opsCommitted             457100761                       # Number of ops (including micro ops) committed (Count)
system.cpu0.commit.memRefs                   78386241                       # Number of memory references committed (Count)
system.cpu0.commit.loads                     53537410                       # Number of loads committed (Count)
system.cpu0.commit.amos                             0                       # Number of atomic instructions committed (Count)
system.cpu0.commit.membars                       1624                       # Number of memory barriers committed (Count)
system.cpu0.commit.branches                  31429072                       # Number of branches committed (Count)
system.cpu0.commit.vectorInstructions               0                       # Number of committed Vector instructions. (Count)
system.cpu0.commit.floating                 139644417                       # Number of committed floating point instructions. (Count)
system.cpu0.commit.integer                  381251817                       # Number of committed integer instructions. (Count)
system.cpu0.commit.functionCalls               794446                       # Number of function calls committed. (Count)
system.cpu0.commit.committedInstType_0::No_OpClass      2541551      0.56%      0.56% # Class of committed instruction (Count)
system.cpu0.commit.committedInstType_0::IntAlu    288604853     63.14%     63.69% # Class of committed instruction (Count)
system.cpu0.commit.committedInstType_0::IntMult      1326370      0.29%     63.98% # Class of committed instruction (Count)
system.cpu0.commit.committedInstType_0::IntDiv     14792983      3.24%     67.22% # Class of committed instruction (Count)
system.cpu0.commit.committedInstType_0::FloatAdd     23445612      5.13%     72.35% # Class of committed instruction (Count)
system.cpu0.commit.committedInstType_0::FloatCmp            0      0.00%     72.35% # Class of committed instruction (Count)
system.cpu0.commit.committedInstType_0::FloatCvt          192      0.00%     72.35% # Class of committed instruction (Count)
system.cpu0.commit.committedInstType_0::FloatMult            0      0.00%     72.35% # Class of committed instruction (Count)
system.cpu0.commit.committedInstType_0::FloatMultAcc            0      0.00%     72.35% # Class of committed instruction (Count)
system.cpu0.commit.committedInstType_0::FloatDiv            0      0.00%     72.35% # Class of committed instruction (Count)
system.cpu0.commit.committedInstType_0::FloatMisc            0      0.00%     72.35% # Class of committed instruction (Count)
system.cpu0.commit.committedInstType_0::FloatSqrt            0      0.00%     72.35% # Class of committed instruction (Count)
system.cpu0.commit.committedInstType_0::SimdAdd          976      0.00%     72.35% # Class of committed instruction (Count)
system.cpu0.commit.committedInstType_0::SimdAddAcc            0      0.00%     72.35% # Class of committed instruction (Count)
system.cpu0.commit.committedInstType_0::SimdAlu      3320086      0.73%     73.08% # Class of committed instruction (Count)
system.cpu0.commit.committedInstType_0::SimdCmp           34      0.00%     73.08% # Class of committed instruction (Count)
system.cpu0.commit.committedInstType_0::SimdCvt         2410      0.00%     73.08% # Class of committed instruction (Count)
system.cpu0.commit.committedInstType_0::SimdMisc       264553      0.06%     73.13% # Class of committed instruction (Count)
system.cpu0.commit.committedInstType_0::SimdMult            0      0.00%     73.13% # Class of committed instruction (Count)
system.cpu0.commit.committedInstType_0::SimdMultAcc            0      0.00%     73.13% # Class of committed instruction (Count)
system.cpu0.commit.committedInstType_0::SimdShift          549      0.00%     73.13% # Class of committed instruction (Count)
system.cpu0.commit.committedInstType_0::SimdShiftAcc            0      0.00%     73.13% # Class of committed instruction (Count)
system.cpu0.commit.committedInstType_0::SimdDiv            0      0.00%     73.13% # Class of committed instruction (Count)
system.cpu0.commit.committedInstType_0::SimdSqrt            0      0.00%     73.13% # Class of committed instruction (Count)
system.cpu0.commit.committedInstType_0::SimdFloatAdd     22042112      4.82%     77.96% # Class of committed instruction (Count)
system.cpu0.commit.committedInstType_0::SimdFloatAlu            0      0.00%     77.96% # Class of committed instruction (Count)
system.cpu0.commit.committedInstType_0::SimdFloatCmp            0      0.00%     77.96% # Class of committed instruction (Count)
system.cpu0.commit.committedInstType_0::SimdFloatCvt       262286      0.06%     78.01% # Class of committed instruction (Count)
system.cpu0.commit.committedInstType_0::SimdFloatDiv       329600      0.07%     78.09% # Class of committed instruction (Count)
system.cpu0.commit.committedInstType_0::SimdFloatMisc            0      0.00%     78.09% # Class of committed instruction (Count)
system.cpu0.commit.committedInstType_0::SimdFloatMult     21780352      4.76%     82.85% # Class of committed instruction (Count)
system.cpu0.commit.committedInstType_0::SimdFloatMultAcc            0      0.00%     82.85% # Class of committed instruction (Count)
system.cpu0.commit.committedInstType_0::SimdFloatSqrt            1      0.00%     82.85% # Class of committed instruction (Count)
system.cpu0.commit.committedInstType_0::SimdReduceAdd            0      0.00%     82.85% # Class of committed instruction (Count)
system.cpu0.commit.committedInstType_0::SimdReduceAlu            0      0.00%     82.85% # Class of committed instruction (Count)
system.cpu0.commit.committedInstType_0::SimdReduceCmp            0      0.00%     82.85% # Class of committed instruction (Count)
system.cpu0.commit.committedInstType_0::SimdFloatReduceAdd            0      0.00%     82.85% # Class of committed instruction (Count)
system.cpu0.commit.committedInstType_0::SimdFloatReduceCmp            0      0.00%     82.85% # Class of committed instruction (Count)
system.cpu0.commit.committedInstType_0::SimdAes            0      0.00%     82.85% # Class of committed instruction (Count)
system.cpu0.commit.committedInstType_0::SimdAesMix            0      0.00%     82.85% # Class of committed instruction (Count)
system.cpu0.commit.committedInstType_0::SimdSha1Hash            0      0.00%     82.85% # Class of committed instruction (Count)
system.cpu0.commit.committedInstType_0::SimdSha1Hash2            0      0.00%     82.85% # Class of committed instruction (Count)
system.cpu0.commit.committedInstType_0::SimdSha256Hash            0      0.00%     82.85% # Class of committed instruction (Count)
system.cpu0.commit.committedInstType_0::SimdSha256Hash2            0      0.00%     82.85% # Class of committed instruction (Count)
system.cpu0.commit.committedInstType_0::SimdShaSigma2            0      0.00%     82.85% # Class of committed instruction (Count)
system.cpu0.commit.committedInstType_0::SimdShaSigma3            0      0.00%     82.85% # Class of committed instruction (Count)
system.cpu0.commit.committedInstType_0::SimdPredAlu            0      0.00%     82.85% # Class of committed instruction (Count)
system.cpu0.commit.committedInstType_0::MemRead      7717233      1.69%     84.54% # Class of committed instruction (Count)
system.cpu0.commit.committedInstType_0::MemWrite      2474048      0.54%     85.08% # Class of committed instruction (Count)
system.cpu0.commit.committedInstType_0::FloatMemRead     45820177     10.02%     95.11% # Class of committed instruction (Count)
system.cpu0.commit.committedInstType_0::FloatMemWrite     22374783      4.89%    100.00% # Class of committed instruction (Count)
system.cpu0.commit.committedInstType_0::IprAccess            0      0.00%    100.00% # Class of committed instruction (Count)
system.cpu0.commit.committedInstType_0::InstPrefetch            0      0.00%    100.00% # Class of committed instruction (Count)
system.cpu0.commit.committedInstType_0::total    457100761                       # Class of committed instruction (Count)
system.cpu0.commit.commitEligibleSamples     13732240                       # number cycles where commit BW limit reached (Cycle)
system.cpu0.dcache.demandHits::cpu0.data     76928754                       # number of demand (read+write) hits (Count)
system.cpu0.dcache.demandHits::total         76928754                       # number of demand (read+write) hits (Count)
system.cpu0.dcache.overallHits::cpu0.data     76928754                       # number of overall hits (Count)
system.cpu0.dcache.overallHits::total        76928754                       # number of overall hits (Count)
system.cpu0.dcache.demandMisses::cpu0.data       483414                       # number of demand (read+write) misses (Count)
system.cpu0.dcache.demandMisses::total         483414                       # number of demand (read+write) misses (Count)
system.cpu0.dcache.overallMisses::cpu0.data       483414                       # number of overall misses (Count)
system.cpu0.dcache.overallMisses::total        483414                       # number of overall misses (Count)
system.cpu0.dcache.demandMissLatency::cpu0.data   8027463494                       # number of demand (read+write) miss ticks (Tick)
system.cpu0.dcache.demandMissLatency::total   8027463494                       # number of demand (read+write) miss ticks (Tick)
system.cpu0.dcache.overallMissLatency::cpu0.data   8027463494                       # number of overall miss ticks (Tick)
system.cpu0.dcache.overallMissLatency::total   8027463494                       # number of overall miss ticks (Tick)
system.cpu0.dcache.demandAccesses::cpu0.data     77412168                       # number of demand (read+write) accesses (Count)
system.cpu0.dcache.demandAccesses::total     77412168                       # number of demand (read+write) accesses (Count)
system.cpu0.dcache.overallAccesses::cpu0.data     77412168                       # number of overall (read+write) accesses (Count)
system.cpu0.dcache.overallAccesses::total     77412168                       # number of overall (read+write) accesses (Count)
system.cpu0.dcache.demandMissRate::cpu0.data     0.006245                       # miss rate for demand accesses (Ratio)
system.cpu0.dcache.demandMissRate::total     0.006245                       # miss rate for demand accesses (Ratio)
system.cpu0.dcache.overallMissRate::cpu0.data     0.006245                       # miss rate for overall accesses (Ratio)
system.cpu0.dcache.overallMissRate::total     0.006245                       # miss rate for overall accesses (Ratio)
system.cpu0.dcache.demandAvgMissLatency::cpu0.data 16605.773714                       # average overall miss latency in ticks ((Tick/Count))
system.cpu0.dcache.demandAvgMissLatency::total 16605.773714                       # average overall miss latency in ticks ((Tick/Count))
system.cpu0.dcache.overallAvgMissLatency::cpu0.data 16605.773714                       # average overall miss latency ((Tick/Count))
system.cpu0.dcache.overallAvgMissLatency::total 16605.773714                       # average overall miss latency ((Tick/Count))
system.cpu0.dcache.blockedCycles::no_mshrs        32646                       # number of cycles access was blocked (Cycle)
system.cpu0.dcache.blockedCycles::no_targets           54                       # number of cycles access was blocked (Cycle)
system.cpu0.dcache.blockedCauses::no_mshrs          723                       # number of times access was blocked (Count)
system.cpu0.dcache.blockedCauses::no_targets            3                       # number of times access was blocked (Count)
system.cpu0.dcache.avgBlocked::no_mshrs     45.153527                       # average number of cycles each access was blocked ((Cycle/Count))
system.cpu0.dcache.avgBlocked::no_targets           18                       # average number of cycles each access was blocked ((Cycle/Count))
system.cpu0.dcache.writebacks::writebacks       255917                       # number of writebacks (Count)
system.cpu0.dcache.writebacks::total           255917                       # number of writebacks (Count)
system.cpu0.dcache.demandMshrHits::cpu0.data        41070                       # number of demand (read+write) MSHR hits (Count)
system.cpu0.dcache.demandMshrHits::total        41070                       # number of demand (read+write) MSHR hits (Count)
system.cpu0.dcache.overallMshrHits::cpu0.data        41070                       # number of overall MSHR hits (Count)
system.cpu0.dcache.overallMshrHits::total        41070                       # number of overall MSHR hits (Count)
system.cpu0.dcache.demandMshrMisses::cpu0.data       442344                       # number of demand (read+write) MSHR misses (Count)
system.cpu0.dcache.demandMshrMisses::total       442344                       # number of demand (read+write) MSHR misses (Count)
system.cpu0.dcache.overallMshrMisses::cpu0.data       442344                       # number of overall MSHR misses (Count)
system.cpu0.dcache.overallMshrMisses::total       442344                       # number of overall MSHR misses (Count)
system.cpu0.dcache.demandMshrMissLatency::cpu0.data   6802264253                       # number of demand (read+write) MSHR miss ticks (Tick)
system.cpu0.dcache.demandMshrMissLatency::total   6802264253                       # number of demand (read+write) MSHR miss ticks (Tick)
system.cpu0.dcache.overallMshrMissLatency::cpu0.data   6802264253                       # number of overall MSHR miss ticks (Tick)
system.cpu0.dcache.overallMshrMissLatency::total   6802264253                       # number of overall MSHR miss ticks (Tick)
system.cpu0.dcache.demandMshrMissRate::cpu0.data     0.005714                       # mshr miss ratio for demand accesses (Ratio)
system.cpu0.dcache.demandMshrMissRate::total     0.005714                       # mshr miss ratio for demand accesses (Ratio)
system.cpu0.dcache.overallMshrMissRate::cpu0.data     0.005714                       # mshr miss ratio for overall accesses (Ratio)
system.cpu0.dcache.overallMshrMissRate::total     0.005714                       # mshr miss ratio for overall accesses (Ratio)
system.cpu0.dcache.demandAvgMshrMissLatency::cpu0.data 15377.769910                       # average overall mshr miss latency ((Tick/Count))
system.cpu0.dcache.demandAvgMshrMissLatency::total 15377.769910                       # average overall mshr miss latency ((Tick/Count))
system.cpu0.dcache.overallAvgMshrMissLatency::cpu0.data 15377.769910                       # average overall mshr miss latency ((Tick/Count))
system.cpu0.dcache.overallAvgMshrMissLatency::total 15377.769910                       # average overall mshr miss latency ((Tick/Count))
system.cpu0.dcache.replacements                429852                       # number of replacements (Count)
system.cpu0.dcache.LockedRMWReadReq.hits::cpu0.data          680                       # number of LockedRMWReadReq hits (Count)
system.cpu0.dcache.LockedRMWReadReq.hits::total          680                       # number of LockedRMWReadReq hits (Count)
system.cpu0.dcache.LockedRMWReadReq.misses::cpu0.data          132                       # number of LockedRMWReadReq misses (Count)
system.cpu0.dcache.LockedRMWReadReq.misses::total          132                       # number of LockedRMWReadReq misses (Count)
system.cpu0.dcache.LockedRMWReadReq.missLatency::cpu0.data      2996667                       # number of LockedRMWReadReq miss ticks (Tick)
system.cpu0.dcache.LockedRMWReadReq.missLatency::total      2996667                       # number of LockedRMWReadReq miss ticks (Tick)
system.cpu0.dcache.LockedRMWReadReq.accesses::cpu0.data          812                       # number of LockedRMWReadReq accesses(hits+misses) (Count)
system.cpu0.dcache.LockedRMWReadReq.accesses::total          812                       # number of LockedRMWReadReq accesses(hits+misses) (Count)
system.cpu0.dcache.LockedRMWReadReq.missRate::cpu0.data     0.162562                       # miss rate for LockedRMWReadReq accesses (Ratio)
system.cpu0.dcache.LockedRMWReadReq.missRate::total     0.162562                       # miss rate for LockedRMWReadReq accesses (Ratio)
system.cpu0.dcache.LockedRMWReadReq.avgMissLatency::cpu0.data 22702.022727                       # average LockedRMWReadReq miss latency ((Tick/Count))
system.cpu0.dcache.LockedRMWReadReq.avgMissLatency::total 22702.022727                       # average LockedRMWReadReq miss latency ((Tick/Count))
system.cpu0.dcache.LockedRMWReadReq.mshrMisses::cpu0.data          132                       # number of LockedRMWReadReq MSHR misses (Count)
system.cpu0.dcache.LockedRMWReadReq.mshrMisses::total          132                       # number of LockedRMWReadReq MSHR misses (Count)
system.cpu0.dcache.LockedRMWReadReq.mshrMissLatency::cpu0.data      8023302                       # number of LockedRMWReadReq MSHR miss ticks (Tick)
system.cpu0.dcache.LockedRMWReadReq.mshrMissLatency::total      8023302                       # number of LockedRMWReadReq MSHR miss ticks (Tick)
system.cpu0.dcache.LockedRMWReadReq.mshrMissRate::cpu0.data     0.162562                       # mshr miss rate for LockedRMWReadReq accesses (Ratio)
system.cpu0.dcache.LockedRMWReadReq.mshrMissRate::total     0.162562                       # mshr miss rate for LockedRMWReadReq accesses (Ratio)
system.cpu0.dcache.LockedRMWReadReq.avgMshrMissLatency::cpu0.data 60782.590909                       # average LockedRMWReadReq mshr miss latency ((Tick/Count))
system.cpu0.dcache.LockedRMWReadReq.avgMshrMissLatency::total 60782.590909                       # average LockedRMWReadReq mshr miss latency ((Tick/Count))
system.cpu0.dcache.LockedRMWWriteReq.hits::cpu0.data          812                       # number of LockedRMWWriteReq hits (Count)
system.cpu0.dcache.LockedRMWWriteReq.hits::total          812                       # number of LockedRMWWriteReq hits (Count)
system.cpu0.dcache.LockedRMWWriteReq.accesses::cpu0.data          812                       # number of LockedRMWWriteReq accesses(hits+misses) (Count)
system.cpu0.dcache.LockedRMWWriteReq.accesses::total          812                       # number of LockedRMWWriteReq accesses(hits+misses) (Count)
system.cpu0.dcache.ReadReq.hits::cpu0.data     52125446                       # number of ReadReq hits (Count)
system.cpu0.dcache.ReadReq.hits::total       52125446                       # number of ReadReq hits (Count)
system.cpu0.dcache.ReadReq.misses::cpu0.data       438692                       # number of ReadReq misses (Count)
system.cpu0.dcache.ReadReq.misses::total       438692                       # number of ReadReq misses (Count)
system.cpu0.dcache.ReadReq.missLatency::cpu0.data   4901476284                       # number of ReadReq miss ticks (Tick)
system.cpu0.dcache.ReadReq.missLatency::total   4901476284                       # number of ReadReq miss ticks (Tick)
system.cpu0.dcache.ReadReq.accesses::cpu0.data     52564138                       # number of ReadReq accesses(hits+misses) (Count)
system.cpu0.dcache.ReadReq.accesses::total     52564138                       # number of ReadReq accesses(hits+misses) (Count)
system.cpu0.dcache.ReadReq.missRate::cpu0.data     0.008346                       # miss rate for ReadReq accesses (Ratio)
system.cpu0.dcache.ReadReq.missRate::total     0.008346                       # miss rate for ReadReq accesses (Ratio)
system.cpu0.dcache.ReadReq.avgMissLatency::cpu0.data 11172.932910                       # average ReadReq miss latency ((Tick/Count))
system.cpu0.dcache.ReadReq.avgMissLatency::total 11172.932910                       # average ReadReq miss latency ((Tick/Count))
system.cpu0.dcache.ReadReq.mshrHits::cpu0.data        41064                       # number of ReadReq MSHR hits (Count)
system.cpu0.dcache.ReadReq.mshrHits::total        41064                       # number of ReadReq MSHR hits (Count)
system.cpu0.dcache.ReadReq.mshrMisses::cpu0.data       397628                       # number of ReadReq MSHR misses (Count)
system.cpu0.dcache.ReadReq.mshrMisses::total       397628                       # number of ReadReq MSHR misses (Count)
system.cpu0.dcache.ReadReq.mshrMissLatency::cpu0.data   3706374249                       # number of ReadReq MSHR miss ticks (Tick)
system.cpu0.dcache.ReadReq.mshrMissLatency::total   3706374249                       # number of ReadReq MSHR miss ticks (Tick)
system.cpu0.dcache.ReadReq.mshrMissRate::cpu0.data     0.007565                       # mshr miss rate for ReadReq accesses (Ratio)
system.cpu0.dcache.ReadReq.mshrMissRate::total     0.007565                       # mshr miss rate for ReadReq accesses (Ratio)
system.cpu0.dcache.ReadReq.avgMshrMissLatency::cpu0.data  9321.210400                       # average ReadReq mshr miss latency ((Tick/Count))
system.cpu0.dcache.ReadReq.avgMshrMissLatency::total  9321.210400                       # average ReadReq mshr miss latency ((Tick/Count))
system.cpu0.dcache.WriteReq.hits::cpu0.data     24803308                       # number of WriteReq hits (Count)
system.cpu0.dcache.WriteReq.hits::total      24803308                       # number of WriteReq hits (Count)
system.cpu0.dcache.WriteReq.misses::cpu0.data        44722                       # number of WriteReq misses (Count)
system.cpu0.dcache.WriteReq.misses::total        44722                       # number of WriteReq misses (Count)
system.cpu0.dcache.WriteReq.missLatency::cpu0.data   3125987210                       # number of WriteReq miss ticks (Tick)
system.cpu0.dcache.WriteReq.missLatency::total   3125987210                       # number of WriteReq miss ticks (Tick)
system.cpu0.dcache.WriteReq.accesses::cpu0.data     24848030                       # number of WriteReq accesses(hits+misses) (Count)
system.cpu0.dcache.WriteReq.accesses::total     24848030                       # number of WriteReq accesses(hits+misses) (Count)
system.cpu0.dcache.WriteReq.missRate::cpu0.data     0.001800                       # miss rate for WriteReq accesses (Ratio)
system.cpu0.dcache.WriteReq.missRate::total     0.001800                       # miss rate for WriteReq accesses (Ratio)
system.cpu0.dcache.WriteReq.avgMissLatency::cpu0.data 69898.197979                       # average WriteReq miss latency ((Tick/Count))
system.cpu0.dcache.WriteReq.avgMissLatency::total 69898.197979                       # average WriteReq miss latency ((Tick/Count))
system.cpu0.dcache.WriteReq.mshrHits::cpu0.data            6                       # number of WriteReq MSHR hits (Count)
system.cpu0.dcache.WriteReq.mshrHits::total            6                       # number of WriteReq MSHR hits (Count)
system.cpu0.dcache.WriteReq.mshrMisses::cpu0.data        44716                       # number of WriteReq MSHR misses (Count)
system.cpu0.dcache.WriteReq.mshrMisses::total        44716                       # number of WriteReq MSHR misses (Count)
system.cpu0.dcache.WriteReq.mshrMissLatency::cpu0.data   3095890004                       # number of WriteReq MSHR miss ticks (Tick)
system.cpu0.dcache.WriteReq.mshrMissLatency::total   3095890004                       # number of WriteReq MSHR miss ticks (Tick)
system.cpu0.dcache.WriteReq.mshrMissRate::cpu0.data     0.001800                       # mshr miss rate for WriteReq accesses (Ratio)
system.cpu0.dcache.WriteReq.mshrMissRate::total     0.001800                       # mshr miss rate for WriteReq accesses (Ratio)
system.cpu0.dcache.WriteReq.avgMshrMissLatency::cpu0.data 69234.502281                       # average WriteReq mshr miss latency ((Tick/Count))
system.cpu0.dcache.WriteReq.avgMshrMissLatency::total 69234.502281                       # average WriteReq mshr miss latency ((Tick/Count))
system.cpu0.dcache.power_state.pwrStateResidencyTicks::UNDEFINED  61925250096                       # Cumulative time (in ticks) in various power states (Tick)
system.cpu0.dcache.tags.tagsInUse          511.708138                       # Average ticks per tags in use ((Tick/Count))
system.cpu0.dcache.tags.totalRefs            77379463                       # Total number of references to valid blocks. (Count)
system.cpu0.dcache.tags.sampledRefs            431540                       # Sample count of references to valid blocks. (Count)
system.cpu0.dcache.tags.avgRefs            179.310059                       # Average number of references to valid blocks. ((Count/Count))
system.cpu0.dcache.tags.warmupTick             189144                       # The tick when the warmup percentage was hit. (Tick)
system.cpu0.dcache.tags.occupancies::cpu0.data   511.708138                       # Average occupied blocks per tick, per requestor ((Count/Tick))
system.cpu0.dcache.tags.avgOccs::cpu0.data     0.999430                       # Average percentage of cache occupancy ((Ratio/Tick))
system.cpu0.dcache.tags.avgOccs::total       0.999430                       # Average percentage of cache occupancy ((Ratio/Tick))
system.cpu0.dcache.tags.occupanciesTaskId::1024          512                       # Occupied blocks per task id (Count)
system.cpu0.dcache.tags.ageTaskId_1024::0           93                       # Occupied blocks per task id, per block age (Count)
system.cpu0.dcache.tags.ageTaskId_1024::1          186                       # Occupied blocks per task id, per block age (Count)
system.cpu0.dcache.tags.ageTaskId_1024::2          225                       # Occupied blocks per task id, per block age (Count)
system.cpu0.dcache.tags.ageTaskId_1024::3            3                       # Occupied blocks per task id, per block age (Count)
system.cpu0.dcache.tags.ageTaskId_1024::4            5                       # Occupied blocks per task id, per block age (Count)
system.cpu0.dcache.tags.ratioOccsTaskId::1024            1                       # Ratio of occupied blocks and all blocks, per task id (Ratio)
system.cpu0.dcache.tags.tagAccesses         619741876                       # Number of tag accesses (Count)
system.cpu0.dcache.tags.dataAccesses        619741876                       # Number of data accesses (Count)
system.cpu0.dcache.tags.power_state.pwrStateResidencyTicks::UNDEFINED  61925250096                       # Cumulative time (in ticks) in various power states (Tick)
system.cpu0.decode.idleCycles                54378686                       # Number of cycles decode is idle (Cycle)
system.cpu0.decode.blockedCycles             33559246                       # Number of cycles decode is blocked (Cycle)
system.cpu0.decode.runCycles                 75288577                       # Number of cycles decode is running (Cycle)
system.cpu0.decode.unblockCycles             12895712                       # Number of cycles decode is unblocking (Cycle)
system.cpu0.decode.squashCycles               1451154                       # Number of cycles decode is squashing (Cycle)
system.cpu0.decode.branchResolved            26314147                       # Number of times decode resolved a branch (Count)
system.cpu0.decode.branchMispred                  981                       # Number of times decode detected a branch misprediction (Count)
system.cpu0.decode.decodedInsts             479857577                       # Number of instructions handled by decode (Count)
system.cpu0.decode.squashedInsts                 4681                       # Number of squashed instructions handled by decode (Count)
system.cpu0.dtb_walker_cache.blockedCycles::no_mshrs            0                       # number of cycles access was blocked (Cycle)
system.cpu0.dtb_walker_cache.blockedCycles::no_targets            0                       # number of cycles access was blocked (Cycle)
system.cpu0.dtb_walker_cache.blockedCauses::no_mshrs            0                       # number of times access was blocked (Count)
system.cpu0.dtb_walker_cache.blockedCauses::no_targets            0                       # number of times access was blocked (Count)
system.cpu0.dtb_walker_cache.avgBlocked::no_mshrs          nan                       # average number of cycles each access was blocked ((Cycle/Count))
system.cpu0.dtb_walker_cache.avgBlocked::no_targets          nan                       # average number of cycles each access was blocked ((Cycle/Count))
system.cpu0.dtb_walker_cache.replacements            0                       # number of replacements (Count)
system.cpu0.dtb_walker_cache.power_state.pwrStateResidencyTicks::UNDEFINED  61925250096                       # Cumulative time (in ticks) in various power states (Tick)
system.cpu0.dtb_walker_cache.tags.tagsInUse            0                       # Average ticks per tags in use ((Tick/Count))
system.cpu0.dtb_walker_cache.tags.totalRefs            0                       # Total number of references to valid blocks. (Count)
system.cpu0.dtb_walker_cache.tags.sampledRefs            0                       # Sample count of references to valid blocks. (Count)
system.cpu0.dtb_walker_cache.tags.avgRefs          nan                       # Average number of references to valid blocks. ((Count/Count))
system.cpu0.dtb_walker_cache.tags.warmupTick            0                       # The tick when the warmup percentage was hit. (Tick)
system.cpu0.dtb_walker_cache.tags.tagAccesses            0                       # Number of tag accesses (Count)
system.cpu0.dtb_walker_cache.tags.dataAccesses            0                       # Number of data accesses (Count)
system.cpu0.dtb_walker_cache.tags.power_state.pwrStateResidencyTicks::UNDEFINED  61925250096                       # Cumulative time (in ticks) in various power states (Tick)
system.cpu0.fetch.icacheStallCycles          54640049                       # Number of cycles fetch is stalled on an Icache miss (Cycle)
system.cpu0.fetch.insts                     248782453                       # Number of instructions fetch has processed (Count)
system.cpu0.fetch.branches                   33210769                       # Number of branches that fetch encountered (Count)
system.cpu0.fetch.predictedBranches          27496748                       # Number of branches that fetch has predicted taken (Count)
system.cpu0.fetch.cycles                    121476170                       # Number of cycles fetch has run and was not squashing or blocked (Cycle)
system.cpu0.fetch.squashCycles                2904218                       # Number of cycles fetch has spent squashing (Cycle)
system.cpu0.fetch.miscStallCycles                 639                       # Number of cycles fetch has spent waiting on interrupts, or bad addresses, or out of MSHRs (Cycle)
system.cpu0.fetch.pendingTrapStallCycles         4389                       # Number of stall cycles due to pending traps (Cycle)
system.cpu0.fetch.icacheWaitRetryStallCycles           19                       # Number of stall cycles due to full MSHR (Cycle)
system.cpu0.fetch.cacheLines                 54521886                       # Number of cache lines fetched (Count)
system.cpu0.fetch.icacheSquashes              1353187                       # Number of outstanding Icache misses that were squashed (Count)
system.cpu0.fetch.nisnDist::samples         177573375                       # Number of instructions fetched each cycle (Total) (Count)
system.cpu0.fetch.nisnDist::mean             2.744445                       # Number of instructions fetched each cycle (Total) (Count)
system.cpu0.fetch.nisnDist::stdev            3.204072                       # Number of instructions fetched each cycle (Total) (Count)
system.cpu0.fetch.nisnDist::underflows              0      0.00%      0.00% # Number of instructions fetched each cycle (Total) (Count)
system.cpu0.fetch.nisnDist::0                83907778     47.25%     47.25% # Number of instructions fetched each cycle (Total) (Count)
system.cpu0.fetch.nisnDist::1                 1790252      1.01%     48.26% # Number of instructions fetched each cycle (Total) (Count)
system.cpu0.fetch.nisnDist::2                23010794     12.96%     61.22% # Number of instructions fetched each cycle (Total) (Count)
system.cpu0.fetch.nisnDist::3                 1485892      0.84%     62.06% # Number of instructions fetched each cycle (Total) (Count)
system.cpu0.fetch.nisnDist::4                24578441     13.84%     75.90% # Number of instructions fetched each cycle (Total) (Count)
system.cpu0.fetch.nisnDist::5                  659694      0.37%     76.27% # Number of instructions fetched each cycle (Total) (Count)
system.cpu0.fetch.nisnDist::6                  748123      0.42%     76.69% # Number of instructions fetched each cycle (Total) (Count)
system.cpu0.fetch.nisnDist::7                 2169300      1.22%     77.91% # Number of instructions fetched each cycle (Total) (Count)
system.cpu0.fetch.nisnDist::8                39223101     22.09%    100.00% # Number of instructions fetched each cycle (Total) (Count)
system.cpu0.fetch.nisnDist::overflows               0      0.00%    100.00% # Number of instructions fetched each cycle (Total) (Count)
system.cpu0.fetch.nisnDist::min_value               0                       # Number of instructions fetched each cycle (Total) (Count)
system.cpu0.fetch.nisnDist::max_value               8                       # Number of instructions fetched each cycle (Total) (Count)
system.cpu0.fetch.nisnDist::total           177573375                       # Number of instructions fetched each cycle (Total) (Count)
system.cpu0.fetch.branchRate                 0.186769                       # Number of branch fetches per cycle (Ratio)
system.cpu0.fetch.rate                       1.399088                       # Number of inst fetches per cycle ((Count/Cycle))
system.cpu0.icache.demandHits::cpu0.inst     54519206                       # number of demand (read+write) hits (Count)
system.cpu0.icache.demandHits::total         54519206                       # number of demand (read+write) hits (Count)
system.cpu0.icache.overallHits::cpu0.inst     54519206                       # number of overall hits (Count)
system.cpu0.icache.overallHits::total        54519206                       # number of overall hits (Count)
system.cpu0.icache.demandMisses::cpu0.inst         2680                       # number of demand (read+write) misses (Count)
system.cpu0.icache.demandMisses::total           2680                       # number of demand (read+write) misses (Count)
system.cpu0.icache.overallMisses::cpu0.inst         2680                       # number of overall misses (Count)
system.cpu0.icache.overallMisses::total          2680                       # number of overall misses (Count)
system.cpu0.icache.demandMissLatency::cpu0.inst    207065393                       # number of demand (read+write) miss ticks (Tick)
system.cpu0.icache.demandMissLatency::total    207065393                       # number of demand (read+write) miss ticks (Tick)
system.cpu0.icache.overallMissLatency::cpu0.inst    207065393                       # number of overall miss ticks (Tick)
system.cpu0.icache.overallMissLatency::total    207065393                       # number of overall miss ticks (Tick)
system.cpu0.icache.demandAccesses::cpu0.inst     54521886                       # number of demand (read+write) accesses (Count)
system.cpu0.icache.demandAccesses::total     54521886                       # number of demand (read+write) accesses (Count)
system.cpu0.icache.overallAccesses::cpu0.inst     54521886                       # number of overall (read+write) accesses (Count)
system.cpu0.icache.overallAccesses::total     54521886                       # number of overall (read+write) accesses (Count)
system.cpu0.icache.demandMissRate::cpu0.inst     0.000049                       # miss rate for demand accesses (Ratio)
system.cpu0.icache.demandMissRate::total     0.000049                       # miss rate for demand accesses (Ratio)
system.cpu0.icache.overallMissRate::cpu0.inst     0.000049                       # miss rate for overall accesses (Ratio)
system.cpu0.icache.overallMissRate::total     0.000049                       # miss rate for overall accesses (Ratio)
system.cpu0.icache.demandAvgMissLatency::cpu0.inst 77263.206343                       # average overall miss latency in ticks ((Tick/Count))
system.cpu0.icache.demandAvgMissLatency::total 77263.206343                       # average overall miss latency in ticks ((Tick/Count))
system.cpu0.icache.overallAvgMissLatency::cpu0.inst 77263.206343                       # average overall miss latency ((Tick/Count))
system.cpu0.icache.overallAvgMissLatency::total 77263.206343                       # average overall miss latency ((Tick/Count))
system.cpu0.icache.blockedCycles::no_mshrs          872                       # number of cycles access was blocked (Cycle)
system.cpu0.icache.blockedCycles::no_targets            0                       # number of cycles access was blocked (Cycle)
system.cpu0.icache.blockedCauses::no_mshrs            8                       # number of times access was blocked (Count)
system.cpu0.icache.blockedCauses::no_targets            0                       # number of times access was blocked (Count)
system.cpu0.icache.avgBlocked::no_mshrs           109                       # average number of cycles each access was blocked ((Cycle/Count))
system.cpu0.icache.avgBlocked::no_targets          nan                       # average number of cycles each access was blocked ((Cycle/Count))
system.cpu0.icache.writebacks::writebacks         1492                       # number of writebacks (Count)
system.cpu0.icache.writebacks::total             1492                       # number of writebacks (Count)
system.cpu0.icache.demandMshrHits::cpu0.inst          675                       # number of demand (read+write) MSHR hits (Count)
system.cpu0.icache.demandMshrHits::total          675                       # number of demand (read+write) MSHR hits (Count)
system.cpu0.icache.overallMshrHits::cpu0.inst          675                       # number of overall MSHR hits (Count)
system.cpu0.icache.overallMshrHits::total          675                       # number of overall MSHR hits (Count)
system.cpu0.icache.demandMshrMisses::cpu0.inst         2005                       # number of demand (read+write) MSHR misses (Count)
system.cpu0.icache.demandMshrMisses::total         2005                       # number of demand (read+write) MSHR misses (Count)
system.cpu0.icache.overallMshrMisses::cpu0.inst         2005                       # number of overall MSHR misses (Count)
system.cpu0.icache.overallMshrMisses::total         2005                       # number of overall MSHR misses (Count)
system.cpu0.icache.demandMshrMissLatency::cpu0.inst    159708131                       # number of demand (read+write) MSHR miss ticks (Tick)
system.cpu0.icache.demandMshrMissLatency::total    159708131                       # number of demand (read+write) MSHR miss ticks (Tick)
system.cpu0.icache.overallMshrMissLatency::cpu0.inst    159708131                       # number of overall MSHR miss ticks (Tick)
system.cpu0.icache.overallMshrMissLatency::total    159708131                       # number of overall MSHR miss ticks (Tick)
system.cpu0.icache.demandMshrMissRate::cpu0.inst     0.000037                       # mshr miss ratio for demand accesses (Ratio)
system.cpu0.icache.demandMshrMissRate::total     0.000037                       # mshr miss ratio for demand accesses (Ratio)
system.cpu0.icache.overallMshrMissRate::cpu0.inst     0.000037                       # mshr miss ratio for overall accesses (Ratio)
system.cpu0.icache.overallMshrMissRate::total     0.000037                       # mshr miss ratio for overall accesses (Ratio)
system.cpu0.icache.demandAvgMshrMissLatency::cpu0.inst 79654.928180                       # average overall mshr miss latency ((Tick/Count))
system.cpu0.icache.demandAvgMshrMissLatency::total 79654.928180                       # average overall mshr miss latency ((Tick/Count))
system.cpu0.icache.overallAvgMshrMissLatency::cpu0.inst 79654.928180                       # average overall mshr miss latency ((Tick/Count))
system.cpu0.icache.overallAvgMshrMissLatency::total 79654.928180                       # average overall mshr miss latency ((Tick/Count))
system.cpu0.icache.replacements                  1492                       # number of replacements (Count)
system.cpu0.icache.ReadReq.hits::cpu0.inst     54519206                       # number of ReadReq hits (Count)
system.cpu0.icache.ReadReq.hits::total       54519206                       # number of ReadReq hits (Count)
system.cpu0.icache.ReadReq.misses::cpu0.inst         2680                       # number of ReadReq misses (Count)
system.cpu0.icache.ReadReq.misses::total         2680                       # number of ReadReq misses (Count)
system.cpu0.icache.ReadReq.missLatency::cpu0.inst    207065393                       # number of ReadReq miss ticks (Tick)
system.cpu0.icache.ReadReq.missLatency::total    207065393                       # number of ReadReq miss ticks (Tick)
system.cpu0.icache.ReadReq.accesses::cpu0.inst     54521886                       # number of ReadReq accesses(hits+misses) (Count)
system.cpu0.icache.ReadReq.accesses::total     54521886                       # number of ReadReq accesses(hits+misses) (Count)
system.cpu0.icache.ReadReq.missRate::cpu0.inst     0.000049                       # miss rate for ReadReq accesses (Ratio)
system.cpu0.icache.ReadReq.missRate::total     0.000049                       # miss rate for ReadReq accesses (Ratio)
system.cpu0.icache.ReadReq.avgMissLatency::cpu0.inst 77263.206343                       # average ReadReq miss latency ((Tick/Count))
system.cpu0.icache.ReadReq.avgMissLatency::total 77263.206343                       # average ReadReq miss latency ((Tick/Count))
system.cpu0.icache.ReadReq.mshrHits::cpu0.inst          675                       # number of ReadReq MSHR hits (Count)
system.cpu0.icache.ReadReq.mshrHits::total          675                       # number of ReadReq MSHR hits (Count)
system.cpu0.icache.ReadReq.mshrMisses::cpu0.inst         2005                       # number of ReadReq MSHR misses (Count)
system.cpu0.icache.ReadReq.mshrMisses::total         2005                       # number of ReadReq MSHR misses (Count)
system.cpu0.icache.ReadReq.mshrMissLatency::cpu0.inst    159708131                       # number of ReadReq MSHR miss ticks (Tick)
system.cpu0.icache.ReadReq.mshrMissLatency::total    159708131                       # number of ReadReq MSHR miss ticks (Tick)
system.cpu0.icache.ReadReq.mshrMissRate::cpu0.inst     0.000037                       # mshr miss rate for ReadReq accesses (Ratio)
system.cpu0.icache.ReadReq.mshrMissRate::total     0.000037                       # mshr miss rate for ReadReq accesses (Ratio)
system.cpu0.icache.ReadReq.avgMshrMissLatency::cpu0.inst 79654.928180                       # average ReadReq mshr miss latency ((Tick/Count))
system.cpu0.icache.ReadReq.avgMshrMissLatency::total 79654.928180                       # average ReadReq mshr miss latency ((Tick/Count))
system.cpu0.icache.power_state.pwrStateResidencyTicks::UNDEFINED  61925250096                       # Cumulative time (in ticks) in various power states (Tick)
system.cpu0.icache.tags.tagsInUse          511.808694                       # Average ticks per tags in use ((Tick/Count))
system.cpu0.icache.tags.totalRefs            54521210                       # Total number of references to valid blocks. (Count)
system.cpu0.icache.tags.sampledRefs              2004                       # Sample count of references to valid blocks. (Count)
system.cpu0.icache.tags.avgRefs          27206.192615                       # Average number of references to valid blocks. ((Count/Count))
system.cpu0.icache.tags.warmupTick              92241                       # The tick when the warmup percentage was hit. (Tick)
system.cpu0.icache.tags.occupancies::cpu0.inst   511.808694                       # Average occupied blocks per tick, per requestor ((Count/Tick))
system.cpu0.icache.tags.avgOccs::cpu0.inst     0.999626                       # Average percentage of cache occupancy ((Ratio/Tick))
system.cpu0.icache.tags.avgOccs::total       0.999626                       # Average percentage of cache occupancy ((Ratio/Tick))
system.cpu0.icache.tags.occupanciesTaskId::1024          512                       # Occupied blocks per task id (Count)
system.cpu0.icache.tags.ageTaskId_1024::0          158                       # Occupied blocks per task id, per block age (Count)
system.cpu0.icache.tags.ageTaskId_1024::1          192                       # Occupied blocks per task id, per block age (Count)
system.cpu0.icache.tags.ageTaskId_1024::3            1                       # Occupied blocks per task id, per block age (Count)
system.cpu0.icache.tags.ageTaskId_1024::4          161                       # Occupied blocks per task id, per block age (Count)
system.cpu0.icache.tags.ratioOccsTaskId::1024            1                       # Ratio of occupied blocks and all blocks, per task id (Ratio)
system.cpu0.icache.tags.tagAccesses         436177092                       # Number of tag accesses (Count)
system.cpu0.icache.tags.dataAccesses        436177092                       # Number of data accesses (Count)
system.cpu0.icache.tags.power_state.pwrStateResidencyTicks::UNDEFINED  61925250096                       # Cumulative time (in ticks) in various power states (Tick)
system.cpu0.iew.idleCycles                          0                       # Number of cycles IEW is idle (Cycle)
system.cpu0.iew.squashCycles                  1451154                       # Number of cycles IEW is squashing (Cycle)
system.cpu0.iew.blockCycles                    493460                       # Number of cycles IEW is blocking (Cycle)
system.cpu0.iew.unblockCycles                   20135                       # Number of cycles IEW is unblocking (Cycle)
system.cpu0.iew.dispatchedInsts             465400750                       # Number of instructions dispatched to IQ (Count)
system.cpu0.iew.dispSquashedInsts             2521047                       # Number of squashed instructions skipped by dispatch (Count)
system.cpu0.iew.dispLoadInsts                55251025                       # Number of dispatched load instructions (Count)
system.cpu0.iew.dispStoreInsts               24965633                       # Number of dispatched store instructions (Count)
system.cpu0.iew.dispNonSpecInsts                 1485                       # Number of dispatched non-speculative instructions (Count)
system.cpu0.iew.iqFullEvents                     2296                       # Number of times the IQ has become full, causing a stall (Count)
system.cpu0.iew.lsqFullEvents                   16514                       # Number of times the LSQ has become full, causing a stall (Count)
system.cpu0.iew.memOrderViolationEvents          1723                       # Number of memory order violations (Count)
system.cpu0.iew.predictedTakenIncorrect       1438810                       # Number of branches that were predicted taken incorrectly (Count)
system.cpu0.iew.predictedNotTakenIncorrect        13611                       # Number of branches that were predicted not taken incorrectly (Count)
system.cpu0.iew.branchMispredicts             1452421                       # Number of branch mispredicts detected at execute (Count)
system.cpu0.iew.instsToCommit               460270423                       # Cumulative count of insts sent to commit (Count)
system.cpu0.iew.writebackCount              460181356                       # Cumulative count of insts written-back (Count)
system.cpu0.iew.producerInst                342966647                       # Number of instructions producing a value (Count)
system.cpu0.iew.consumerInst                645480812                       # Number of instructions consuming a value (Count)
system.cpu0.iew.wbRate                       2.587940                       # Insts written-back per cycle ((Count/Cycle))
system.cpu0.iew.wbFanout                     0.531335                       # Average fanout of values written-back ((Count/Count))
system.cpu0.interrupts.clk_domain.clock          5328                       # Clock period in ticks (Tick)
system.cpu0.itb_walker_cache.blockedCycles::no_mshrs            0                       # number of cycles access was blocked (Cycle)
system.cpu0.itb_walker_cache.blockedCycles::no_targets            0                       # number of cycles access was blocked (Cycle)
system.cpu0.itb_walker_cache.blockedCauses::no_mshrs            0                       # number of times access was blocked (Count)
system.cpu0.itb_walker_cache.blockedCauses::no_targets            0                       # number of times access was blocked (Count)
system.cpu0.itb_walker_cache.avgBlocked::no_mshrs          nan                       # average number of cycles each access was blocked ((Cycle/Count))
system.cpu0.itb_walker_cache.avgBlocked::no_targets          nan                       # average number of cycles each access was blocked ((Cycle/Count))
[...]
system.mem_ctrls.dram.perBankWrBursts::9            0                       # Per bank write bursts (Count)
system.mem_ctrls.dram.perBankWrBursts::10            0                       # Per bank write bursts (Count)
system.mem_ctrls.dram.perBankWrBursts::11            0                       # Per bank write bursts (Count)
system.mem_ctrls.dram.perBankWrBursts::12            0                       # Per bank write bursts (Count)
system.mem_ctrls.dram.perBankWrBursts::13            0                       # Per bank write bursts (Count)
system.mem_ctrls.dram.perBankWrBursts::14            0                       # Per bank write bursts (Count)
system.mem_ctrls.dram.perBankWrBursts::15            0                       # Per bank write bursts (Count)
system.mem_ctrls.dram.totQLat               339092837                       # Total ticks spent queuing (Tick)
system.mem_ctrls.dram.totBusLat             190570000                       # Total ticks spent in databus transfers (Tick)
system.mem_ctrls.dram.totMemAccLat         1053730337                       # Total ticks spent from burst creation until serviced by the DRAM (Tick)
system.mem_ctrls.dram.avgQLat                 8896.81                       # Average queueing delay per DRAM burst ((Tick/Count))
system.mem_ctrls.dram.avgBusLat               5000.00                       # Average bus latency per DRAM burst ((Tick/Count))
system.mem_ctrls.dram.avgMemAccLat           27646.81                       # Average memory access latency per DRAM burst ((Tick/Count))
system.mem_ctrls.dram.readRowHits               27686                       # Number of row buffer hits during reads (Count)
system.mem_ctrls.dram.writeRowHits                  0                       # Number of row buffer hits during writes (Count)
system.mem_ctrls.dram.readRowHitRate            72.64                       # Row buffer hit rate for reads (Ratio)
system.mem_ctrls.dram.writeRowHitRate             nan                       # Row buffer hit rate for writes (Ratio)
system.mem_ctrls.dram.bytesPerActivate::samples        10425                       # Bytes accessed per row activation (Byte)
system.mem_ctrls.dram.bytesPerActivate::mean   233.905420                       # Bytes accessed per row activation (Byte)
system.mem_ctrls.dram.bytesPerActivate::gmean   209.140817                       # Bytes accessed per row activation (Byte)
system.mem_ctrls.dram.bytesPerActivate::stdev   126.717326                       # Bytes accessed per row activation (Byte)
system.mem_ctrls.dram.bytesPerActivate::0-127          865      8.30%      8.30% # Bytes accessed per row activation (Byte)
system.mem_ctrls.dram.bytesPerActivate::128-255         2176     20.87%     29.17% # Bytes accessed per row activation (Byte)
system.mem_ctrls.dram.bytesPerActivate::256-383         7065     67.77%     96.94% # Bytes accessed per row activation (Byte)
system.mem_ctrls.dram.bytesPerActivate::384-511           56      0.54%     97.48% # Bytes accessed per row activation (Byte)
system.mem_ctrls.dram.bytesPerActivate::512-639           36      0.35%     97.82% # Bytes accessed per row activation (Byte)
system.mem_ctrls.dram.bytesPerActivate::640-767           35      0.34%     98.16% # Bytes accessed per row activation (Byte)
system.mem_ctrls.dram.bytesPerActivate::768-895           28      0.27%     98.43% # Bytes accessed per row activation (Byte)
system.mem_ctrls.dram.bytesPerActivate::896-1023           24      0.23%     98.66% # Bytes accessed per row activation (Byte)
system.mem_ctrls.dram.bytesPerActivate::1024-1151          140      1.34%    100.00% # Bytes accessed per row activation (Byte)
system.mem_ctrls.dram.bytesPerActivate::total        10425                       # Bytes accessed per row activation (Byte)
system.mem_ctrls.dram.bytesRead               2439296                       # Total bytes read (Byte)
system.mem_ctrls.dram.bytesWritten                  0                       # Total bytes written (Byte)
system.mem_ctrls.dram.avgRdBW               39.390975                       # Average DRAM read bandwidth in MiBytes/s ((Byte/Second))
system.mem_ctrls.dram.avgWrBW                       0                       # Average DRAM write bandwidth in MiBytes/s ((Byte/Second))
system.mem_ctrls.dram.peakBW                 12800.00                       # Theoretical peak bandwidth in MiByte/s ((Byte/Second))
system.mem_ctrls.dram.busUtil                    0.31                       # Data bus utilization in percentage (Ratio)
system.mem_ctrls.dram.busUtilRead                0.31                       # Data bus utilization in percentage for reads (Ratio)
system.mem_ctrls.dram.busUtilWrite               0.00                       # Data bus utilization in percentage for writes (Ratio)
system.mem_ctrls.dram.pageHitRate               72.64                       # Row buffer hit rate, read and write combined (Ratio)
system.mem_ctrls.dram.power_state.pwrStateResidencyTicks::UNDEFINED  61925250096                       # Cumulative time (in ticks) in various power states (Tick)
system.mem_ctrls.dram.rank0.actEnergy        35600040                       # Energy for activate commands per rank (pJ) (Joule)
system.mem_ctrls.dram.rank0.preEnergy        18918075                       # Energy for precharge commands per rank (pJ) (Joule)
system.mem_ctrls.dram.rank0.readEnergy      135767100                       # Energy for read commands per rank (pJ) (Joule)
system.mem_ctrls.dram.rank0.writeEnergy             0                       # Energy for write commands per rank (pJ) (Joule)
system.mem_ctrls.dram.rank0.refreshEnergy 4888231920.000001                       # Energy for refresh commands per rank (pJ) (Joule)
system.mem_ctrls.dram.rank0.actBackEnergy   3712427670                       # Energy for active background per rank (pJ) (Joule)
system.mem_ctrls.dram.rank0.preBackEnergy  20653041600                       # Energy for precharge background per rank (pJ) (Joule)
system.mem_ctrls.dram.rank0.actPowerDownEnergy            0                       # Energy for active power-down per rank (pJ) (Joule)
system.mem_ctrls.dram.rank0.prePowerDownEnergy            0                       # Energy for precharge power-down per rank (pJ) (Joule)
system.mem_ctrls.dram.rank0.selfRefreshEnergy            0                       # Energy for self refresh per rank (pJ) (Joule)
system.mem_ctrls.dram.rank0.totalEnergy   29443986405                       # Total energy per rank (pJ) (Joule)
system.mem_ctrls.dram.rank0.averagePower   475.476261                       # Core power per rank (mW) (Watt)
system.mem_ctrls.dram.rank0.totalIdleTime            0                       # Total Idle time Per DRAM Rank (Tick)
system.mem_ctrls.dram.rank0.pwrStateTime::IDLE  53659342170                       # Time in different power states (Tick)
system.mem_ctrls.dram.rank0.pwrStateTime::REF   2067780000                       # Time in different power states (Tick)
system.mem_ctrls.dram.rank0.pwrStateTime::SREF            0                       # Time in different power states (Tick)
system.mem_ctrls.dram.rank0.pwrStateTime::PRE_PDN            0                       # Time in different power states (Tick)
system.mem_ctrls.dram.rank0.pwrStateTime::ACT   6198127926                       # Time in different power states (Tick)
system.mem_ctrls.dram.rank0.pwrStateTime::ACT_PDN            0                       # Time in different power states (Tick)
system.mem_ctrls.dram.rank1.actEnergy        38855880                       # Energy for activate commands per rank (pJ) (Joule)
system.mem_ctrls.dram.rank1.preEnergy        20644800                       # Energy for precharge commands per rank (pJ) (Joule)
system.mem_ctrls.dram.rank1.readEnergy      136366860                       # Energy for read commands per rank (pJ) (Joule)
system.mem_ctrls.dram.rank1.writeEnergy             0                       # Energy for write commands per rank (pJ) (Joule)
system.mem_ctrls.dram.rank1.refreshEnergy 4888231920.000001                       # Energy for refresh commands per rank (pJ) (Joule)
system.mem_ctrls.dram.rank1.actBackEnergy   3697885260                       # Energy for active background per rank (pJ) (Joule)
system.mem_ctrls.dram.rank1.preBackEnergy  20665287840                       # Energy for precharge background per rank (pJ) (Joule)
system.mem_ctrls.dram.rank1.actPowerDownEnergy            0                       # Energy for active power-down per rank (pJ) (Joule)
system.mem_ctrls.dram.rank1.prePowerDownEnergy            0                       # Energy for precharge power-down per rank (pJ) (Joule)
system.mem_ctrls.dram.rank1.selfRefreshEnergy            0                       # Energy for self refresh per rank (pJ) (Joule)
system.mem_ctrls.dram.rank1.totalEnergy   29447272560                       # Total energy per rank (pJ) (Joule)
system.mem_ctrls.dram.rank1.averagePower   475.529328                       # Core power per rank (mW) (Watt)
system.mem_ctrls.dram.rank1.totalIdleTime            0                       # Total Idle time Per DRAM Rank (Tick)
system.mem_ctrls.dram.rank1.pwrStateTime::IDLE  53690612211                       # Time in different power states (Tick)
system.mem_ctrls.dram.rank1.pwrStateTime::REF   2067780000                       # Time in different power states (Tick)
system.mem_ctrls.dram.rank1.pwrStateTime::SREF            0                       # Time in different power states (Tick)
system.mem_ctrls.dram.rank1.pwrStateTime::PRE_PDN            0                       # Time in different power states (Tick)
system.mem_ctrls.dram.rank1.pwrStateTime::ACT   6166857885                       # Time in different power states (Tick)
system.mem_ctrls.dram.rank1.pwrStateTime::ACT_PDN            0                       # Time in different power states (Tick)
system.mem_ctrls.power_state.pwrStateResidencyTicks::UNDEFINED  61925250096                       # Cumulative time (in ticks) in various power states (Tick)
system.membus.transDist::ReadResp                4400                       # Transaction distribution (Count)
system.membus.transDist::UpgradeReq             23853                       # Transaction distribution (Count)
system.membus.transDist::ReadExReq              33790                       # Transaction distribution (Count)
system.membus.transDist::ReadExResp             33714                       # Transaction distribution (Count)
system.membus.transDist::ReadSharedReq           4400                       # Transaction distribution (Count)
system.membus.pktCount_system.l3.mem_side_port::system.mem_ctrls.port       100157                       # Packet count per connected requestor and responder (Count)
system.membus.pktCount_system.l3.mem_side_port::total       100157                       # Packet count per connected requestor and responder (Count)
system.membus.pktCount::total                  100157                       # Packet count per connected requestor and responder (Count)
system.membus.pktSize_system.l3.mem_side_port::system.mem_ctrls.port      2439296                       # Cumulative packet size per connected requestor and responder (Byte)
system.membus.pktSize_system.l3.mem_side_port::total      2439296                       # Cumulative packet size per connected requestor and responder (Byte)
system.membus.pktSize::total                  2439296                       # Cumulative packet size per connected requestor and responder (Byte)
system.membus.snoops                            23929                       # Total snoops (Count)
system.membus.snoopTraffic                          0                       # Total snoop traffic (Byte)
system.membus.snoopFanout::samples              62043                       # Request fanout histogram (Count)
system.membus.snoopFanout::mean                     0                       # Request fanout histogram (Count)
system.membus.snoopFanout::stdev                    0                       # Request fanout histogram (Count)
system.membus.snoopFanout::underflows               0      0.00%      0.00% # Request fanout histogram (Count)
system.membus.snoopFanout::0                    62043    100.00%    100.00% # Request fanout histogram (Count)
system.membus.snoopFanout::1                        0      0.00%    100.00% # Request fanout histogram (Count)
system.membus.snoopFanout::overflows                0      0.00%    100.00% # Request fanout histogram (Count)
system.membus.snoopFanout::min_value                0                       # Request fanout histogram (Count)
system.membus.snoopFanout::max_value                0                       # Request fanout histogram (Count)
system.membus.snoopFanout::total                62043                       # Request fanout histogram (Count)
system.membus.power_state.pwrStateResidencyTicks::UNDEFINED  61925250096                       # Cumulative time (in ticks) in various power states (Tick)
system.membus.reqLayer4.occupancy            57324180                       # Layer occupancy (ticks) (Tick)
system.membus.reqLayer4.utilization               0.0                       # Layer utilization (Ratio)
system.membus.respLayer1.occupancy          202871271                       # Layer occupancy (ticks) (Tick)
system.membus.respLayer1.utilization              0.0                       # Layer utilization (Ratio)
system.membus.snoop_filter.totRequests          62043                       # Total number of requests made to the snoop filter. (Count)
system.membus.snoop_filter.hitSingleRequests        23929                       # Number of requests hitting in the snoop filter with a single holder of the requested data. (Count)
system.membus.snoop_filter.hitMultiRequests            0                       # Number of requests hitting in the snoop filter with multiple (>1) holders of the requested data. (Count)
system.membus.snoop_filter.totSnoops                0                       # Total number of snoops made to the snoop filter. (Count)
system.membus.snoop_filter.hitSingleSnoops            0                       # Number of snoops hitting in the snoop filter with a single holder of the requested data. (Count)
system.membus.snoop_filter.hitMultiSnoops            0                       # Number of snoops hitting in the snoop filter with multiple (>1) holders of the requested data. (Count)
system.tol3bus.transDist::ReadResp              59242                       # Transaction distribution (Count)
system.tol3bus.transDist::WritebackDirty        13331                       # Transaction distribution (Count)
system.tol3bus.transDist::CleanEvict             3475                       # Transaction distribution (Count)
system.tol3bus.transDist::UpgradeReq            25135                       # Transaction distribution (Count)
system.tol3bus.transDist::UpgradeResp           25135                       # Transaction distribution (Count)
system.tol3bus.transDist::ReadExReq             33849                       # Transaction distribution (Count)
system.tol3bus.transDist::ReadExResp            33849                       # Transaction distribution (Count)
system.tol3bus.transDist::ReadSharedReq         59242                       # Transaction distribution (Count)
system.tol3bus.pktCount_system.cpu0.l2cache.mem_side_port::system.l3.cpu_side_port       128915                       # Packet count per connected requestor and responder (Count)
system.tol3bus.pktCount_system.cpu1.l2cache.mem_side_port::system.l3.cpu_side_port        58097                       # Packet count per connected requestor and responder (Count)
system.tol3bus.pktCount::total                 187012                       # Packet count per connected requestor and responder (Count)
system.tol3bus.pktSize_system.cpu0.l2cache.mem_side_port::system.l3.cpu_side_port      3807808                       # Cumulative packet size per connected requestor and responder (Byte)
system.tol3bus.pktSize_system.cpu1.l2cache.mem_side_port::system.l3.cpu_side_port       290048                       # Cumulative packet size per connected requestor and responder (Byte)
system.tol3bus.pktSize::total                 4097856                       # Cumulative packet size per connected requestor and responder (Byte)
system.tol3bus.snoops                           66246                       # Total snoops (Count)
system.tol3bus.snoopTraffic                   2713152                       # Total snoop traffic (Byte)
system.tol3bus.snoopFanout::samples            118226                       # Request fanout histogram (Count)
system.tol3bus.snoopFanout::mean             0.574121                       # Request fanout histogram (Count)
system.tol3bus.snoopFanout::stdev            0.494478                       # Request fanout histogram (Count)
system.tol3bus.snoopFanout::underflows              0      0.00%      0.00% # Request fanout histogram (Count)
system.tol3bus.snoopFanout::0                   50350     42.59%     42.59% # Request fanout histogram (Count)
system.tol3bus.snoopFanout::1                   67876     57.41%    100.00% # Request fanout histogram (Count)
system.tol3bus.snoopFanout::2                       0      0.00%    100.00% # Request fanout histogram (Count)
system.tol3bus.snoopFanout::overflows               0      0.00%    100.00% # Request fanout histogram (Count)
system.tol3bus.snoopFanout::min_value               0                       # Request fanout histogram (Count)
system.tol3bus.snoopFanout::max_value               1                       # Request fanout histogram (Count)
system.tol3bus.snoopFanout::total              118226                       # Request fanout histogram (Count)
system.tol3bus.power_state.pwrStateResidencyTicks::UNDEFINED  61925250096                       # Cumulative time (in ticks) in various power states (Tick)
system.tol3bus.reqLayer0.occupancy           53844118                       # Layer occupancy (ticks) (Tick)
system.tol3bus.reqLayer0.utilization              0.0                       # Layer utilization (Ratio)
system.tol3bus.respLayer0.occupancy          62412852                       # Layer occupancy (ticks) (Tick)
system.tol3bus.respLayer0.utilization             0.0                       # Layer utilization (Ratio)
system.tol3bus.respLayer1.occupancy          38960326                       # Layer occupancy (ticks) (Tick)
system.tol3bus.respLayer1.utilization             0.0                       # Layer utilization (Ratio)
system.tol3bus.snoop_filter.totRequests        135032                       # Total number of requests made to the snoop filter. (Count)
system.tol3bus.snoop_filter.hitSingleRequests        58007                       # Number of requests hitting in the snoop filter with a single holder of the requested data. (Count)
system.tol3bus.snoop_filter.hitMultiRequests        26677                       # Number of requests hitting in the snoop filter with multiple (>1) holders of the requested data. (Count)
system.tol3bus.snoop_filter.totSnoops               0                       # Total number of snoops made to the snoop filter. (Count)
system.tol3bus.snoop_filter.hitSingleSnoops            0                       # Number of snoops hitting in the snoop filter with a single holder of the requested data. (Count)
system.tol3bus.snoop_filter.hitMultiSnoops            0                       # Number of snoops hitting in the snoop filter with multiple (>1) holders of the requested data. (Count)
system.voltage_domain.voltage                       1                       # Voltage in Volts (Volt)
system.workload.inst.arm                            0                       # number of arm instructions executed (Count)
system.workload.inst.quiesce                        0                       # number of quiesce instructions executed (Count)

---------- End Simulation Statistics   ----------
