
---------- Begin Simulation Statistics ----------
simSeconds                                   0.067296                       # Number of seconds simulated (Second)
simTicks                                  67295870100                       # Number of ticks simulated (Tick)
finalTick                                 67295870100                       # Number of ticks from beginning of simulation (restored from checkpoints and never reset) (Tick)
simFreq                                  1000000000000                       # The number of ticks per simulated second ((Tick/Second))
hostSeconds                                   1206.67                       # Real time elapsed on the host (Second)
hostTickRate                                 55770056                       # The number of ticks simulated per host second (ticks/s) ((Tick/Second))
hostMemory                                     808208                       # Number of bytes of host memory used (Byte)
simInsts                                    254224780                       # Number of instructions simulated (Count)
simOps                                      438136123                       # Number of ops (including micro ops) simulated (Count)
hostInstRate                                   210683                       # Simulator instruction rate (inst/s) ((Count/Second))
hostOpRate                                     363096                       # Simulator op (including micro ops) rate (op/s) ((Count/Second))
system.clk_domain.clock                          1000                       # Clock period in ticks (Tick)
system.cpu0.numCycles                       201871900                       # Number of cpu cycles simulated (Cycle)
system.cpu0.numWorkItemsStarted                     0                       # Number of work items this cpu started (Count)
system.cpu0.numWorkItemsCompleted                   0                       # Number of work items this cpu completed (Count)
system.cpu0.instsAdded                      219915801                       # Number of instructions added to the IQ (excludes non-spec) (Count)
system.cpu0.nonSpecInstsAdded                    1668                       # Number of non-speculative instructions added to the IQ (Count)
system.cpu0.instsIssued                     219744277                       # Number of instructions issued (Count)
system.cpu0.squashedInstsIssued                  3033                       # Number of squashed instructions issued (Count)
system.cpu0.squashedInstsExamined              660088                       # Number of squashed instructions iterated over during squash; mainly for profiling (Count)
system.cpu0.squashedOperandsExamined           815280                       # Number of squashed operands that are examined and possibly removed from graph (Count)
system.cpu0.squashedNonSpecRemoved                738                       # Number of squashed non-spec instructions that were removed (Count)
system.cpu0.numIssuedDist::samples          201630267                       # Number of insts issued each cycle (Count)
system.cpu0.numIssuedDist::mean              1.089838                       # Number of insts issued each cycle (Count)
system.cpu0.numIssuedDist::stdev             1.442734                       # Number of insts issued each cycle (Count)
system.cpu0.numIssuedDist::underflows               0      0.00%      0.00% # Number of insts issued each cycle (Count)
system.cpu0.numIssuedDist::0                100858568     50.02%     50.02% # Number of insts issued each cycle (Count)
system.cpu0.numIssuedDist::1                 37212981     18.46%     68.48% # Number of insts issued each cycle (Count)
system.cpu0.numIssuedDist::2                 34873872     17.30%     85.77% # Number of insts issued each cycle (Count)
system.cpu0.numIssuedDist::3                 14311313      7.10%     92.87% # Number of insts issued each cycle (Count)
system.cpu0.numIssuedDist::4                  6655547      3.30%     96.17% # Number of insts issued each cycle (Count)
system.cpu0.numIssuedDist::5                  4347873      2.16%     98.33% # Number of insts issued each cycle (Count)
system.cpu0.numIssuedDist::6                  2442352      1.21%     99.54% # Number of insts issued each cycle (Count)
system.cpu0.numIssuedDist::7                   588140      0.29%     99.83% # Number of insts issued each cycle (Count)
system.cpu0.numIssuedDist::8                   339621      0.17%    100.00% # Number of insts issued each cycle (Count)
system.cpu0.numIssuedDist::overflows                0      0.00%    100.00% # Number of insts issued each cycle (Count)
system.cpu0.numIssuedDist::min_value                0                       # Number of insts issued each cycle (Count)
system.cpu0.numIssuedDist::max_value                8                       # Number of insts issued each cycle (Count)
system.cpu0.numIssuedDist::total            201630267                       # Number of insts issued each cycle (Count)
system.cpu0.statFuBusy::No_OpClass                  0      0.00%      0.00% # attempts to use FU when none available (Count)
system.cpu0.statFuBusy::IntAlu                 375510     99.27%     99.27% # attempts to use FU when none available (Count)
system.cpu0.statFuBusy::IntMult                     0      0.00%     99.27% # attempts to use FU when none available (Count)
system.cpu0.statFuBusy::IntDiv                      0      0.00%     99.27% # attempts to use FU when none available (Count)
system.cpu0.statFuBusy::FloatAdd                    0      0.00%     99.27% # attempts to use FU when none available (Count)
system.cpu0.statFuBusy::FloatCmp                    0      0.00%     99.27% # attempts to use FU when none available (Count)
system.cpu0.statFuBusy::FloatCvt                    0      0.00%     99.27% # attempts to use FU when none available (Count)
system.cpu0.statFuBusy::FloatMult                   0      0.00%     99.27% # attempts to use FU when none available (Count)
system.cpu0.statFuBusy::FloatMultAcc                0      0.00%     99.27% # attempts to use FU when none available (Count)
system.cpu0.statFuBusy::FloatDiv                    0      0.00%     99.27% # attempts to use FU when none available (Count)
system.cpu0.statFuBusy::FloatMisc                   0      0.00%     99.27% # attempts to use FU when none available (Count)
system.cpu0.statFuBusy::FloatSqrt                   0      0.00%     99.27% # attempts to use FU when none available (Count)
system.cpu0.statFuBusy::SimdAdd                     0      0.00%     99.27% # attempts to use FU when none available (Count)
system.cpu0.statFuBusy::SimdAddAcc                  0      0.00%     99.27% # attempts to use FU when none available (Count)
system.cpu0.statFuBusy::SimdAlu                    52      0.01%     99.29% # attempts to use FU when none available (Count)
system.cpu0.statFuBusy::SimdCmp                     0      0.00%     99.29% # attempts to use FU when none available (Count)
system.cpu0.statFuBusy::SimdCvt                    68      0.02%     99.30% # attempts to use FU when none available (Count)
system.cpu0.statFuBusy::SimdMisc                    3      0.00%     99.30% # attempts to use FU when none available (Count)
system.cpu0.statFuBusy::SimdMult                    0      0.00%     99.30% # attempts to use FU when none available (Count)
system.cpu0.statFuBusy::SimdMultAcc                 0      0.00%     99.30% # attempts to use FU when none available (Count)
system.cpu0.statFuBusy::SimdShift                  10      0.00%     99.31% # attempts to use FU when none available (Count)
system.cpu0.statFuBusy::SimdShiftAcc                0      0.00%     99.31% # attempts to use FU when none available (Count)
system.cpu0.statFuBusy::SimdDiv                     0      0.00%     99.31% # attempts to use FU when none available (Count)
system.cpu0.statFuBusy::SimdSqrt                    0      0.00%     99.31% # attempts to use FU when none available (Count)
system.cpu0.statFuBusy::SimdFloatAdd                0      0.00%     99.31% # attempts to use FU when none available (Count)
system.cpu0.statFuBusy::SimdFloatAlu                0      0.00%     99.31% # attempts to use FU when none available (Count)
system.cpu0.statFuBusy::SimdFloatCmp                0      0.00%     99.31% # attempts to use FU when none available (Count)
system.cpu0.statFuBusy::SimdFloatCvt                0      0.00%     99.31% # attempts to use FU when none available (Count)
system.cpu0.statFuBusy::SimdFloatDiv                0      0.00%     99.31% # attempts to use FU when none available (Count)
system.cpu0.statFuBusy::SimdFloatMisc               0      0.00%     99.31% # attempts to use FU when none available (Count)
system.cpu0.statFuBusy::SimdFloatMult               0      0.00%     99.31% # attempts to use FU when none available (Count)
system.cpu0.statFuBusy::SimdFloatMultAcc            0      0.00%     99.31% # attempts to use FU when none available (Count)
system.cpu0.statFuBusy::SimdFloatSqrt               0      0.00%     99.31% # attempts to use FU when none available (Count)
system.cpu0.statFuBusy::SimdReduceAdd               0      0.00%     99.31% # attempts to use FU when none available (Count)
system.cpu0.statFuBusy::SimdReduceAlu               0      0.00%     99.31% # attempts to use FU when none available (Count)
system.cpu0.statFuBusy::SimdReduceCmp               0      0.00%     99.31% # attempts to use FU when none available (Count)
system.cpu0.statFuBusy::SimdFloatReduceAdd            0      0.00%     99.31% # attempts to use FU when none available (Count)
system.cpu0.statFuBusy::SimdFloatReduceCmp            0      0.00%     99.31% # attempts to use FU when none available (Count)
system.cpu0.statFuBusy::SimdAes                     0      0.00%     99.31% # attempts to use FU when none available (Count)
system.cpu0.statFuBusy::SimdAesMix                  0      0.00%     99.31% # attempts to use FU when none available (Count)
system.cpu0.statFuBusy::SimdSha1Hash                0      0.00%     99.31% # attempts to use FU when none available (Count)
system.cpu0.statFuBusy::SimdSha1Hash2               0      0.00%     99.31% # attempts to use FU when none available (Count)
system.cpu0.statFuBusy::SimdSha256Hash              0      0.00%     99.31% # attempts to use FU when none available (Count)
system.cpu0.statFuBusy::SimdSha256Hash2             0      0.00%     99.31% # attempts to use FU when none available (Count)
system.cpu0.statFuBusy::SimdShaSigma2               0      0.00%     99.31% # attempts to use FU when none available (Count)
system.cpu0.statFuBusy::SimdShaSigma3               0      0.00%     99.31% # attempts to use FU when none available (Count)
system.cpu0.statFuBusy::SimdPredAlu                 0      0.00%     99.31% # attempts to use FU when none available (Count)
system.cpu0.statFuBusy::MemRead                  1555      0.41%     99.72% # attempts to use FU when none available (Count)
system.cpu0.statFuBusy::MemWrite                  844      0.22%     99.94% # attempts to use FU when none available (Count)
system.cpu0.statFuBusy::FloatMemRead              116      0.03%     99.97% # attempts to use FU when none available (Count)
system.cpu0.statFuBusy::FloatMemWrite             105      0.03%    100.00% # attempts to use FU when none available (Count)
system.cpu0.statFuBusy::IprAccess                   0      0.00%    100.00% # attempts to use FU when none available (Count)
system.cpu0.statFuBusy::InstPrefetch                0      0.00%    100.00% # attempts to use FU when none available (Count)
system.cpu0.statIssuedInstType_0::No_OpClass      2108163      0.96%      0.96% # Number of instructions issued per FU type, per thread (Count)
system.cpu0.statIssuedInstType_0::IntAlu     89432458     40.70%     41.66% # Number of instructions issued per FU type, per thread (Count)
system.cpu0.statIssuedInstType_0::IntMult          121      0.00%     41.66% # Number of instructions issued per FU type, per thread (Count)
system.cpu0.statIssuedInstType_0::IntDiv         2406      0.00%     41.66% # Number of instructions issued per FU type, per thread (Count)
system.cpu0.statIssuedInstType_0::FloatAdd      6298709      2.87%     44.53% # Number of instructions issued per FU type, per thread (Count)
system.cpu0.statIssuedInstType_0::FloatCmp            0      0.00%     44.53% # Number of instructions issued per FU type, per thread (Count)
system.cpu0.statIssuedInstType_0::FloatCvt          212      0.00%     44.53% # Number of instructions issued per FU type, per thread (Count)
system.cpu0.statIssuedInstType_0::FloatMult            0      0.00%     44.53% # Number of instructions issued per FU type, per thread (Count)
system.cpu0.statIssuedInstType_0::FloatMultAcc            0      0.00%     44.53% # Number of instructions issued per FU type, per thread (Count)
system.cpu0.statIssuedInstType_0::FloatDiv            0      0.00%     44.53% # Number of instructions issued per FU type, per thread (Count)
system.cpu0.statIssuedInstType_0::FloatMisc            0      0.00%     44.53% # Number of instructions issued per FU type, per thread (Count)
system.cpu0.statIssuedInstType_0::FloatSqrt            0      0.00%     44.53% # Number of instructions issued per FU type, per thread (Count)
system.cpu0.statIssuedInstType_0::SimdAdd         1012      0.00%     44.53% # Number of instructions issued per FU type, per thread (Count)
system.cpu0.statIssuedInstType_0::SimdAddAcc            0      0.00%     44.53% # Number of instructions issued per FU type, per thread (Count)
system.cpu0.statIssuedInstType_0::SimdAlu     17839827      8.12%     52.64% # Number of instructions issued per FU type, per thread (Count)
system.cpu0.statIssuedInstType_0::SimdCmp            0      0.00%     52.64% # Number of instructions issued per FU type, per thread (Count)
system.cpu0.statIssuedInstType_0::SimdCvt         2846      0.00%     52.65% # Number of instructions issued per FU type, per thread (Count)
system.cpu0.statIssuedInstType_0::SimdMisc     17307817      7.88%     60.52% # Number of instructions issued per FU type, per thread (Count)
system.cpu0.statIssuedInstType_0::SimdMult            0      0.00%     60.52% # Number of instructions issued per FU type, per thread (Count)
system.cpu0.statIssuedInstType_0::SimdMultAcc            0      0.00%     60.52% # Number of instructions issued per FU type, per thread (Count)
system.cpu0.statIssuedInstType_0::SimdShift          993      0.00%     60.52% # Number of instructions issued per FU type, per thread (Count)
system.cpu0.statIssuedInstType_0::SimdShiftAcc            0      0.00%     60.52% # Number of instructions issued per FU type, per thread (Count)
system.cpu0.statIssuedInstType_0::SimdDiv            0      0.00%     60.52% # Number of instructions issued per FU type, per thread (Count)
system.cpu0.statIssuedInstType_0::SimdSqrt            0      0.00%     60.52% # Number of instructions issued per FU type, per thread (Count)
system.cpu0.statIssuedInstType_0::SimdFloatAdd     14158865      6.44%     66.97% # Number of instructions issued per FU type, per thread (Count)
system.cpu0.statIssuedInstType_0::SimdFloatAlu            0      0.00%     66.97% # Number of instructions issued per FU type, per thread (Count)
system.cpu0.statIssuedInstType_0::SimdFloatCmp            0      0.00%     66.97% # Number of instructions issued per FU type, per thread (Count)
system.cpu0.statIssuedInstType_0::SimdFloatCvt     17830938      8.11%     75.08% # Number of instructions issued per FU type, per thread (Count)
system.cpu0.statIssuedInstType_0::SimdFloatDiv            0      0.00%     75.08% # Number of instructions issued per FU type, per thread (Count)
system.cpu0.statIssuedInstType_0::SimdFloatMisc            0      0.00%     75.08% # Number of instructions issued per FU type, per thread (Count)
system.cpu0.statIssuedInstType_0::SimdFloatMult     28319761     12.89%     87.97% # Number of instructions issued per FU type, per thread (Count)
system.cpu0.statIssuedInstType_0::SimdFloatMultAcc            0      0.00%     87.97% # Number of instructions issued per FU type, per thread (Count)
system.cpu0.statIssuedInstType_0::SimdFloatSqrt            0      0.00%     87.97% # Number of instructions issued per FU type, per thread (Count)
system.cpu0.statIssuedInstType_0::SimdReduceAdd            0      0.00%     87.97% # Number of instructions issued per FU type, per thread (Count)
system.cpu0.statIssuedInstType_0::SimdReduceAlu            0      0.00%     87.97% # Number of instructions issued per FU type, per thread (Count)
system.cpu0.statIssuedInstType_0::SimdReduceCmp            0      0.00%     87.97% # Number of instructions issued per FU type, per thread (Count)
system.cpu0.statIssuedInstType_0::SimdFloatReduceAdd            0      0.00%     87.97% # Number of instructions issued per FU type, per thread (Count)
system.cpu0.statIssuedInstType_0::SimdFloatReduceCmp            0      0.00%     87.97% # Number of instructions issued per FU type, per thread (Count)
system.cpu0.statIssuedInstType_0::SimdAes            0      0.00%     87.97% # Number of instructions issued per FU type, per thread (Count)
system.cpu0.statIssuedInstType_0::SimdAesMix            0      0.00%     87.97% # Number of instructions issued per FU type, per thread (Count)
system.cpu0.statIssuedInstType_0::SimdSha1Hash            0      0.00%     87.97% # Number of instructions issued per FU type, per thread (Count)
system.cpu0.statIssuedInstType_0::SimdSha1Hash2            0      0.00%     87.97% # Number of instructions issued per FU type, per thread (Count)
system.cpu0.statIssuedInstType_0::SimdSha256Hash            0      0.00%     87.97% # Number of instructions issued per FU type, per thread (Count)
system.cpu0.statIssuedInstType_0::SimdSha256Hash2            0      0.00%     87.97% # Number of instructions issued per FU type, per thread (Count)
system.cpu0.statIssuedInstType_0::SimdShaSigma2            0      0.00%     87.97% # Number of instructions issued per FU type, per thread (Count)
system.cpu0.statIssuedInstType_0::SimdShaSigma3            0      0.00%     87.97% # Number of instructions issued per FU type, per thread (Count)
system.cpu0.statIssuedInstType_0::SimdPredAlu            0      0.00%     87.97% # Number of instructions issued per FU type, per thread (Count)
system.cpu0.statIssuedInstType_0::MemRead     10104727      4.60%     92.57% # Number of instructions issued per FU type, per thread (Count)
system.cpu0.statIssuedInstType_0::MemWrite      7407609      3.37%     95.94% # Number of instructions issued per FU type, per thread (Count)
system.cpu0.statIssuedInstType_0::FloatMemRead      8924936      4.06%    100.00% # Number of instructions issued per FU type, per thread (Count)
system.cpu0.statIssuedInstType_0::FloatMemWrite         2877      0.00%    100.00% # Number of instructions issued per FU type, per thread (Count)
system.cpu0.statIssuedInstType_0::IprAccess            0      0.00%    100.00% # Number of instructions issued per FU type, per thread (Count)
system.cpu0.statIssuedInstType_0::InstPrefetch            0      0.00%    100.00% # Number of instructions issued per FU type, per thread (Count)
system.cpu0.statIssuedInstType_0::total     219744277                       # Number of instructions issued per FU type, per thread (Count)
system.cpu0.issueRate                        1.088533                       # Inst issue rate ((Count/Cycle))
system.cpu0.fuBusy                             378263                       # FU busy when requested (Count)
system.cpu0.fuBusyRate                       0.001721                       # FU busy rate (busy events/executed inst) ((Count/Count))
system.cpu0.intInstQueueReads               361367466                       # Number of integer instruction queue reads (Count)
system.cpu0.intInstQueueWrites               80314411                       # Number of integer instruction queue writes (Count)
system.cpu0.intInstQueueWakeupAccesses       79648113                       # Number of integer instruction queue wakeup accesses (Count)
system.cpu0.fpInstQueueReads                280132651                       # Number of floating instruction queue reads (Count)
system.cpu0.fpInstQueueWrites               140263334                       # Number of floating instruction queue writes (Count)
system.cpu0.fpInstQueueWakeupAccesses       140062568                       # Number of floating instruction queue wakeup accesses (Count)
system.cpu0.vecInstQueueReads                       0                       # Number of vector instruction queue reads (Count)
system.cpu0.vecInstQueueWrites                      0                       # Number of vector instruction queue writes (Count)
system.cpu0.vecInstQueueWakeupAccesses              0                       # Number of vector instruction queue wakeup accesses (Count)
system.cpu0.intAluAccesses                   77947948                       # Number of integer alu accesses (Count)
system.cpu0.fpAluAccesses                   140066429                       # Number of floating point alu accesses (Count)
system.cpu0.vecAluAccesses                          0                       # Number of vector alu accesses (Count)
system.cpu0.numInsts                        219729107                       # Number of executed instructions (Count)
system.cpu0.numLoadInsts                     19025843                       # Number of load instructions executed (Count)
system.cpu0.numSquashedInsts                    15170                       # Number of squashed instructions skipped in execute (Count)
system.cpu0.numSwp                                  0                       # Number of swp insts executed (Count)
system.cpu0.numNop                                  0                       # Number of nop insts executed (Count)
system.cpu0.numRefs                          26435599                       # Number of memory reference insts executed (Count)
system.cpu0.numBranches                       7965375                       # Number of branches executed (Count)
system.cpu0.numStoreInsts                     7409756                       # Number of stores executed (Count)
system.cpu0.numRate                          1.088458                       # Inst execution rate ((Count/Cycle))
system.cpu0.timesIdled                           1242                       # Number of times that the entire CPU went into an idle state and unscheduled itself (Count)
system.cpu0.idleCycles                         241633                       # Total number of cycles that the CPU has spent unscheduled due to idling (Cycle)
system.cpu0.quiesceCycles                      217801                       # Total number of cycles that CPU has spent quiesced or waiting for an interrupt (Cycle)
system.cpu0.committedInsts                  127215494                       # Number of Instructions Simulated (Count)
system.cpu0.committedOps                    219257375                       # Number of Ops (including micro ops) Simulated (Count)
system.cpu0.cpi                              1.586850                       # CPI: Cycles Per Instruction ((Cycle/Count))
system.cpu0.totalCpi                         1.586850                       # CPI: Total CPI of All Threads ((Cycle/Count))
system.cpu0.ipc                              0.630179                       # IPC: Instructions Per Cycle ((Count/Cycle))
system.cpu0.totalIpc                         0.630179                       # IPC: Total IPC of All Threads ((Count/Cycle))
system.cpu0.intRegfileReads                 124028623                       # Number of integer regfile reads (Count)
system.cpu0.intRegfileWrites                 67345488                       # Number of integer regfile writes (Count)
system.cpu0.fpRegfileReads                  274854357                       # Number of floating regfile reads (Count)
system.cpu0.fpRegfileWrites                 131144612                       # Number of floating regfile writes (Count)
system.cpu0.ccRegfileReads                   25155324                       # number of cc regfile reads (Count)
system.cpu0.ccRegfileWrites                  33975878                       # number of cc regfile writes (Count)
system.cpu0.miscRegfileReads                 49214112                       # number of misc regfile reads (Count)
system.cpu0.miscRegfileWrites                     108                       # number of misc regfile writes (Count)
system.cpu0.MemDepUnit__0.insertedLoads      19043190                       # Number of loads inserted to the mem dependence unit. (Count)
system.cpu0.MemDepUnit__0.insertedStores      7419817                       # Number of stores inserted to the mem dependence unit. (Count)
system.cpu0.MemDepUnit__0.conflictingLoads      4614342                       # Number of conflicting loads. (Count)
system.cpu0.MemDepUnit__0.conflictingStores      4109850                       # Number of conflicting stores. (Count)
system.cpu0.MemDepUnit__1.insertedLoads             0                       # Number of loads inserted to the mem dependence unit. (Count)
system.cpu0.MemDepUnit__1.insertedStores            0                       # Number of stores inserted to the mem dependence unit. (Count)
system.cpu0.MemDepUnit__1.conflictingLoads            0                       # Number of conflicting loads. (Count)
system.cpu0.MemDepUnit__1.conflictingStores            0                       # Number of conflicting stores. (Count)
system.cpu0.MemDepUnit__2.insertedLoads             0                       # Number of loads inserted to the mem dependence unit. (Count)
system.cpu0.MemDepUnit__2.insertedStores            0                       # Number of stores inserted to the mem dependence unit. (Count)
system.cpu0.MemDepUnit__2.conflictingLoads            0                       # Number of conflicting loads. (Count)
system.cpu0.MemDepUnit__2.conflictingStores            0                       # Number of conflicting stores. (Count)
system.cpu0.MemDepUnit__3.insertedLoads             0                       # Number of loads inserted to the mem dependence unit. (Count)
system.cpu0.MemDepUnit__3.insertedStores            0                       # Number of stores inserted to the mem dependence unit. (Count)
system.cpu0.MemDepUnit__3.conflictingLoads            0                       # Number of conflicting loads. (Count)
system.cpu0.MemDepUnit__3.conflictingStores            0                       # Number of conflicting stores. (Count)
system.cpu0.branchPred.lookups                8010974                       # Number of BP lookups (Count)
system.cpu0.branchPred.condPredicted          3789974                       # Number of conditional branches predicted (Count)
system.cpu0.branchPred.condIncorrect             7109                       # Number of conditional branches incorrect (Count)
system.cpu0.branchPred.BTBLookups             5844815                       # Number of BTB lookups (Count)
system.cpu0.branchPred.BTBHits                5841774                       # Number of BTB hits (Count)
system.cpu0.branchPred.BTBHitRatio           0.999480                       # BTB Hit Ratio (Ratio)
system.cpu0.branchPred.RASUsed                2102190                       # Number of times the RAS was used to get a target. (Count)
system.cpu0.branchPred.RASIncorrect                 6                       # Number of incorrect RAS predictions. (Count)
system.cpu0.branchPred.indirectLookups           4124                       # Number of indirect predictor lookups. (Count)
system.cpu0.branchPred.indirectHits               548                       # Number of indirect target hits. (Count)
system.cpu0.branchPred.indirectMisses            3576                       # Number of indirect misses. (Count)
system.cpu0.branchPred.indirectMispredicted          616                       # Number of mispredicted indirect branches. (Count)
system.cpu0.commit.commitSquashedInsts         628641                       # The number of squashed insts skipped by commit (Count)
system.cpu0.commit.commitNonSpecStalls            930                       # The number of times commit has been forced to stall to communicate backwards (Count)
system.cpu0.commit.branchMispredicts             6987                       # The number of times a branch was mispredicted (Count)
system.cpu0.commit.numCommittedDist::samples    201543656                       # Number of insts commited each cycle (Count)
system.cpu0.commit.numCommittedDist::mean     1.087890                       # Number of insts commited each cycle (Count)
system.cpu0.commit.numCommittedDist::stdev     1.831372                       # Number of insts commited each cycle (Count)
system.cpu0.commit.numCommittedDist::underflows            0      0.00%      0.00% # Number of insts commited each cycle (Count)
system.cpu0.commit.numCommittedDist::0      106222158     52.70%     52.70% # Number of insts commited each cycle (Count)
system.cpu0.commit.numCommittedDist::1       54697638     27.14%     79.84% # Number of insts commited each cycle (Count)
system.cpu0.commit.numCommittedDist::2       10755418      5.34%     85.18% # Number of insts commited each cycle (Count)
system.cpu0.commit.numCommittedDist::3       13435886      6.67%     91.85% # Number of insts commited each cycle (Count)
system.cpu0.commit.numCommittedDist::4        4911495      2.44%     94.28% # Number of insts commited each cycle (Count)
system.cpu0.commit.numCommittedDist::5        2492772      1.24%     95.52% # Number of insts commited each cycle (Count)
system.cpu0.commit.numCommittedDist::6         528770      0.26%     95.78% # Number of insts commited each cycle (Count)
system.cpu0.commit.numCommittedDist::7         537369      0.27%     96.05% # Number of insts commited each cycle (Count)
system.cpu0.commit.numCommittedDist::8        7962150      3.95%    100.00% # Number of insts commited each cycle (Count)
system.cpu0.commit.numCommittedDist::overflows            0      0.00%    100.00% # Number of insts commited each cycle (Count)
system.cpu0.commit.numCommittedDist::min_value            0                       # Number of insts commited each cycle (Count)
system.cpu0.commit.numCommittedDist::max_value            8                       # Number of insts commited each cycle (Count)
system.cpu0.commit.numCommittedDist::total    201543656                       # Number of insts commited each cycle (Count)
system.cpu0.commit.instsCommitted           127215494                       # Number of instructions committed (Count)
system.cpu0.commit.opsCommitted             219257375                       # Number of ops (including micro ops) committed (Count)
system.cpu0.commit.memRefs                   26345657                       # Number of memory references committed (Count)
system.cpu0.commit.loads                     18962350                       # Number of loads committed (Count)
system.cpu0.commit.amos                             0                       # Number of atomic instructions committed (Count)
system.cpu0.commit.membars                        548                       # Number of memory barriers committed (Count)
system.cpu0.commit.branches                   7934219                       # Number of branches committed (Count)
system.cpu0.commit.vectorInstructions               0                       # Number of committed Vector instructions. (Count)
system.cpu0.commit.floating                 139997694                       # Number of committed floating point instructions. (Count)
system.cpu0.commit.integer                  103378636                       # Number of committed integer instructions. (Count)
system.cpu0.commit.functionCalls              2098796                       # Number of function calls committed. (Count)
system.cpu0.commit.committedInstType_0::No_OpClass      2099788      0.96%      0.96% # Class of committed instruction (Count)
system.cpu0.commit.committedInstType_0::IntAlu     89090474     40.63%     41.59% # Class of committed instruction (Count)
system.cpu0.commit.committedInstType_0::IntMult          101      0.00%     41.59% # Class of committed instruction (Count)
system.cpu0.commit.committedInstType_0::IntDiv         2165      0.00%     41.59% # Class of committed instruction (Count)
system.cpu0.commit.committedInstType_0::FloatAdd      6292129      2.87%     44.46% # Class of committed instruction (Count)
system.cpu0.commit.committedInstType_0::FloatCmp            0      0.00%     44.46% # Class of committed instruction (Count)
system.cpu0.commit.committedInstType_0::FloatCvt          192      0.00%     44.46% # Class of committed instruction (Count)
system.cpu0.commit.committedInstType_0::FloatMult            0      0.00%     44.46% # Class of committed instruction (Count)
system.cpu0.commit.committedInstType_0::FloatMultAcc            0      0.00%     44.46% # Class of committed instruction (Count)
system.cpu0.commit.committedInstType_0::FloatDiv            0      0.00%     44.46% # Class of committed instruction (Count)
system.cpu0.commit.committedInstType_0::FloatMisc            0      0.00%     44.46% # Class of committed instruction (Count)
system.cpu0.commit.committedInstType_0::FloatSqrt            0      0.00%     44.46% # Class of committed instruction (Count)
system.cpu0.commit.committedInstType_0::SimdAdd          732      0.00%     44.46% # Class of committed instruction (Count)
system.cpu0.commit.committedInstType_0::SimdAddAcc            0      0.00%     44.46% # Class of committed instruction (Count)
system.cpu0.commit.committedInstType_0::SimdAlu     17827411      8.13%     52.59% # Class of committed instruction (Count)
system.cpu0.commit.committedInstType_0::SimdCmp            0      0.00%     52.59% # Class of committed instruction (Count)
system.cpu0.commit.committedInstType_0::SimdCvt         1824      0.00%     52.59% # Class of committed instruction (Count)
system.cpu0.commit.committedInstType_0::SimdMisc     17303328      7.89%     60.49% # Class of committed instruction (Count)
system.cpu0.commit.committedInstType_0::SimdMult            0      0.00%     60.49% # Class of committed instruction (Count)
system.cpu0.commit.committedInstType_0::SimdMultAcc            0      0.00%     60.49% # Class of committed instruction (Count)
system.cpu0.commit.committedInstType_0::SimdShift          382      0.00%     60.49% # Class of committed instruction (Count)
system.cpu0.commit.committedInstType_0::SimdShiftAcc            0      0.00%     60.49% # Class of committed instruction (Count)
system.cpu0.commit.committedInstType_0::SimdDiv            0      0.00%     60.49% # Class of committed instruction (Count)
system.cpu0.commit.committedInstType_0::SimdSqrt            0      0.00%     60.49% # Class of committed instruction (Count)
system.cpu0.commit.committedInstType_0::SimdFloatAdd     14155794      6.46%     66.94% # Class of committed instruction (Count)
system.cpu0.commit.committedInstType_0::SimdFloatAlu            0      0.00%     66.94% # Class of committed instruction (Count)
system.cpu0.commit.committedInstType_0::SimdFloatCmp            0      0.00%     66.94% # Class of committed instruction (Count)
system.cpu0.commit.committedInstType_0::SimdFloatCvt     17825821      8.13%     75.07% # Class of committed instruction (Count)
system.cpu0.commit.committedInstType_0::SimdFloatDiv            0      0.00%     75.07% # Class of committed instruction (Count)
system.cpu0.commit.committedInstType_0::SimdFloatMisc            0      0.00%     75.07% # Class of committed instruction (Count)
system.cpu0.commit.committedInstType_0::SimdFloatMult     28311577     12.91%     87.98% # Class of committed instruction (Count)
system.cpu0.commit.committedInstType_0::SimdFloatMultAcc            0      0.00%     87.98% # Class of committed instruction (Count)
system.cpu0.commit.committedInstType_0::SimdFloatSqrt            0      0.00%     87.98% # Class of committed instruction (Count)
system.cpu0.commit.committedInstType_0::SimdReduceAdd            0      0.00%     87.98% # Class of committed instruction (Count)
system.cpu0.commit.committedInstType_0::SimdReduceAlu            0      0.00%     87.98% # Class of committed instruction (Count)
system.cpu0.commit.committedInstType_0::SimdReduceCmp            0      0.00%     87.98% # Class of committed instruction (Count)
system.cpu0.commit.committedInstType_0::SimdFloatReduceAdd            0      0.00%     87.98% # Class of committed instruction (Count)
system.cpu0.commit.committedInstType_0::SimdFloatReduceCmp            0      0.00%     87.98% # Class of committed instruction (Count)
system.cpu0.commit.committedInstType_0::SimdAes            0      0.00%     87.98% # Class of committed instruction (Count)
system.cpu0.commit.committedInstType_0::SimdAesMix            0      0.00%     87.98% # Class of committed instruction (Count)
system.cpu0.commit.committedInstType_0::SimdSha1Hash            0      0.00%     87.98% # Class of committed instruction (Count)
system.cpu0.commit.committedInstType_0::SimdSha1Hash2            0      0.00%     87.98% # Class of committed instruction (Count)
system.cpu0.commit.committedInstType_0::SimdSha256Hash            0      0.00%     87.98% # Class of committed instruction (Count)
system.cpu0.commit.committedInstType_0::SimdSha256Hash2            0      0.00%     87.98% # Class of committed instruction (Count)
system.cpu0.commit.committedInstType_0::SimdShaSigma2            0      0.00%     87.98% # Class of committed instruction (Count)
system.cpu0.commit.committedInstType_0::SimdShaSigma3            0      0.00%     87.98% # Class of committed instruction (Count)
system.cpu0.commit.committedInstType_0::SimdPredAlu            0      0.00%     87.98% # Class of committed instruction (Count)
system.cpu0.commit.committedInstType_0::MemRead     10046994      4.58%     92.57% # Class of committed instruction (Count)
system.cpu0.commit.committedInstType_0::MemWrite      7380904      3.37%     95.93% # Class of committed instruction (Count)
system.cpu0.commit.committedInstType_0::FloatMemRead      8915356      4.07%    100.00% # Class of committed instruction (Count)
system.cpu0.commit.committedInstType_0::FloatMemWrite         2403      0.00%    100.00% # Class of committed instruction (Count)
system.cpu0.commit.committedInstType_0::IprAccess            0      0.00%    100.00% # Class of committed instruction (Count)
system.cpu0.commit.committedInstType_0::InstPrefetch            0      0.00%    100.00% # Class of committed instruction (Count)
system.cpu0.commit.committedInstType_0::total    219257375                       # Class of committed instruction (Count)
system.cpu0.commit.commitEligibleSamples      7962150                       # number cycles where commit BW limit reached (Cycle)
system.cpu0.dcache.demandHits::cpu0.data     20414699                       # number of demand (read+write) hits (Count)
system.cpu0.dcache.demandHits::total         20414699                       # number of demand (read+write) hits (Count)
system.cpu0.dcache.overallHits::cpu0.data     20414699                       # number of overall hits (Count)
system.cpu0.dcache.overallHits::total        20414699                       # number of overall hits (Count)
system.cpu0.dcache.demandMisses::cpu0.data      3617399                       # number of demand (read+write) misses (Count)
system.cpu0.dcache.demandMisses::total        3617399                       # number of demand (read+write) misses (Count)
system.cpu0.dcache.overallMisses::cpu0.data      3617399                       # number of overall misses (Count)
system.cpu0.dcache.overallMisses::total       3617399                       # number of overall misses (Count)
system.cpu0.dcache.demandMissLatency::cpu0.data 220258081437                       # number of demand (read+write) miss ticks (Tick)
system.cpu0.dcache.demandMissLatency::total 220258081437                       # number of demand (read+write) miss ticks (Tick)
system.cpu0.dcache.overallMissLatency::cpu0.data 220258081437                       # number of overall miss ticks (Tick)
system.cpu0.dcache.overallMissLatency::total 220258081437                       # number of overall miss ticks (Tick)
system.cpu0.dcache.demandAccesses::cpu0.data     24032098                       # number of demand (read+write) accesses (Count)
system.cpu0.dcache.demandAccesses::total     24032098                       # number of demand (read+write) accesses (Count)
system.cpu0.dcache.overallAccesses::cpu0.data     24032098                       # number of overall (read+write) accesses (Count)
system.cpu0.dcache.overallAccesses::total     24032098                       # number of overall (read+write) accesses (Count)
system.cpu0.dcache.demandMissRate::cpu0.data     0.150524                       # miss rate for demand accesses (Ratio)
system.cpu0.dcache.demandMissRate::total     0.150524                       # miss rate for demand accesses (Ratio)
system.cpu0.dcache.overallMissRate::cpu0.data     0.150524                       # miss rate for overall accesses (Ratio)
system.cpu0.dcache.overallMissRate::total     0.150524                       # miss rate for overall accesses (Ratio)
system.cpu0.dcache.demandAvgMissLatency::cpu0.data 60888.522786                       # average overall miss latency in ticks ((Tick/Count))
system.cpu0.dcache.demandAvgMissLatency::total 60888.522786                       # average overall miss latency in ticks ((Tick/Count))
system.cpu0.dcache.overallAvgMissLatency::cpu0.data 60888.522786                       # average overall miss latency ((Tick/Count))
system.cpu0.dcache.overallAvgMissLatency::total 60888.522786                       # average overall miss latency ((Tick/Count))
system.cpu0.dcache.blockedCycles::no_mshrs        36983                       # number of cycles access was blocked (Cycle)
system.cpu0.dcache.blockedCycles::no_targets            6                       # number of cycles access was blocked (Cycle)
system.cpu0.dcache.blockedCauses::no_mshrs          563                       # number of times access was blocked (Count)
system.cpu0.dcache.blockedCauses::no_targets            2                       # number of times access was blocked (Count)
system.cpu0.dcache.avgBlocked::no_mshrs     65.689165                       # average number of cycles each access was blocked ((Cycle/Count))
system.cpu0.dcache.avgBlocked::no_targets            3                       # average number of cycles each access was blocked ((Cycle/Count))
system.cpu0.dcache.writebacks::writebacks       969315                       # number of writebacks (Count)
system.cpu0.dcache.writebacks::total           969315                       # number of writebacks (Count)
system.cpu0.dcache.demandMshrHits::cpu0.data      2251586                       # number of demand (read+write) MSHR hits (Count)
system.cpu0.dcache.demandMshrHits::total      2251586                       # number of demand (read+write) MSHR hits (Count)
system.cpu0.dcache.overallMshrHits::cpu0.data      2251586                       # number of overall MSHR hits (Count)
system.cpu0.dcache.overallMshrHits::total      2251586                       # number of overall MSHR hits (Count)
system.cpu0.dcache.demandMshrMisses::cpu0.data      1365813                       # number of demand (read+write) MSHR misses (Count)
system.cpu0.dcache.demandMshrMisses::total      1365813                       # number of demand (read+write) MSHR misses (Count)
system.cpu0.dcache.overallMshrMisses::cpu0.data      1365813                       # number of overall MSHR misses (Count)
system.cpu0.dcache.overallMshrMisses::total      1365813                       # number of overall MSHR misses (Count)
system.cpu0.dcache.demandMshrMissLatency::cpu0.data  70779171309                       # number of demand (read+write) MSHR miss ticks (Tick)
system.cpu0.dcache.demandMshrMissLatency::total  70779171309                       # number of demand (read+write) MSHR miss ticks (Tick)
system.cpu0.dcache.overallMshrMissLatency::cpu0.data  70779171309                       # number of overall MSHR miss ticks (Tick)
system.cpu0.dcache.overallMshrMissLatency::total  70779171309                       # number of overall MSHR miss ticks (Tick)
system.cpu0.dcache.demandMshrMissRate::cpu0.data     0.056833                       # mshr miss ratio for demand accesses (Ratio)
system.cpu0.dcache.demandMshrMissRate::total     0.056833                       # mshr miss ratio for demand accesses (Ratio)
system.cpu0.dcache.overallMshrMissRate::cpu0.data     0.056833                       # mshr miss ratio for overall accesses (Ratio)
system.cpu0.dcache.overallMshrMissRate::total     0.056833                       # mshr miss ratio for overall accesses (Ratio)
system.cpu0.dcache.demandAvgMshrMissLatency::cpu0.data 51822.007338                       # average overall mshr miss latency ((Tick/Count))
system.cpu0.dcache.demandAvgMshrMissLatency::total 51822.007338                       # average overall mshr miss latency ((Tick/Count))
system.cpu0.dcache.overallAvgMshrMissLatency::cpu0.data 51822.007338                       # average overall mshr miss latency ((Tick/Count))
system.cpu0.dcache.overallAvgMshrMissLatency::total 51822.007338                       # average overall mshr miss latency ((Tick/Count))
system.cpu0.dcache.replacements               1361913                       # number of replacements (Count)
system.cpu0.dcache.LockedRMWReadReq.hits::cpu0.data          227                       # number of LockedRMWReadReq hits (Count)
system.cpu0.dcache.LockedRMWReadReq.hits::total          227                       # number of LockedRMWReadReq hits (Count)
system.cpu0.dcache.LockedRMWReadReq.misses::cpu0.data           47                       # number of LockedRMWReadReq misses (Count)
system.cpu0.dcache.LockedRMWReadReq.misses::total           47                       # number of LockedRMWReadReq misses (Count)
system.cpu0.dcache.LockedRMWReadReq.missLatency::cpu0.data      1152180                       # number of LockedRMWReadReq miss ticks (Tick)
system.cpu0.dcache.LockedRMWReadReq.missLatency::total      1152180                       # number of LockedRMWReadReq miss ticks (Tick)
system.cpu0.dcache.LockedRMWReadReq.accesses::cpu0.data          274                       # number of LockedRMWReadReq accesses(hits+misses) (Count)
system.cpu0.dcache.LockedRMWReadReq.accesses::total          274                       # number of LockedRMWReadReq accesses(hits+misses) (Count)
system.cpu0.dcache.LockedRMWReadReq.missRate::cpu0.data     0.171533                       # miss rate for LockedRMWReadReq accesses (Ratio)
system.cpu0.dcache.LockedRMWReadReq.missRate::total     0.171533                       # miss rate for LockedRMWReadReq accesses (Ratio)
system.cpu0.dcache.LockedRMWReadReq.avgMissLatency::cpu0.data 24514.468085                       # average LockedRMWReadReq miss latency ((Tick/Count))
system.cpu0.dcache.LockedRMWReadReq.avgMissLatency::total 24514.468085                       # average LockedRMWReadReq miss latency ((Tick/Count))
system.cpu0.dcache.LockedRMWReadReq.mshrHits::cpu0.data            1                       # number of LockedRMWReadReq MSHR hits (Count)
system.cpu0.dcache.LockedRMWReadReq.mshrHits::total            1                       # number of LockedRMWReadReq MSHR hits (Count)
system.cpu0.dcache.LockedRMWReadReq.mshrMisses::cpu0.data           46                       # number of LockedRMWReadReq MSHR misses (Count)
system.cpu0.dcache.LockedRMWReadReq.mshrMisses::total           46                       # number of LockedRMWReadReq MSHR misses (Count)
system.cpu0.dcache.LockedRMWReadReq.mshrMissLatency::cpu0.data      3005658                       # number of LockedRMWReadReq MSHR miss ticks (Tick)
system.cpu0.dcache.LockedRMWReadReq.mshrMissLatency::total      3005658                       # number of LockedRMWReadReq MSHR miss ticks (Tick)
system.cpu0.dcache.LockedRMWReadReq.mshrMissRate::cpu0.data     0.167883                       # mshr miss rate for LockedRMWReadReq accesses (Ratio)
system.cpu0.dcache.LockedRMWReadReq.mshrMissRate::total     0.167883                       # mshr miss rate for LockedRMWReadReq accesses (Ratio)
system.cpu0.dcache.LockedRMWReadReq.avgMshrMissLatency::cpu0.data 65340.391304                       # average LockedRMWReadReq mshr miss latency ((Tick/Count))
system.cpu0.dcache.LockedRMWReadReq.avgMshrMissLatency::total 65340.391304                       # average LockedRMWReadReq mshr miss latency ((Tick/Count))
system.cpu0.dcache.LockedRMWWriteReq.hits::cpu0.data          274                       # number of LockedRMWWriteReq hits (Count)
system.cpu0.dcache.LockedRMWWriteReq.hits::total          274                       # number of LockedRMWWriteReq hits (Count)
system.cpu0.dcache.LockedRMWWriteReq.accesses::cpu0.data          274                       # number of LockedRMWWriteReq accesses(hits+misses) (Count)
system.cpu0.dcache.LockedRMWWriteReq.accesses::total          274                       # number of LockedRMWWriteReq accesses(hits+misses) (Count)
system.cpu0.dcache.ReadReq.hits::cpu0.data     13938056                       # number of ReadReq hits (Count)
system.cpu0.dcache.ReadReq.hits::total       13938056                       # number of ReadReq hits (Count)
system.cpu0.dcache.ReadReq.misses::cpu0.data      2711008                       # number of ReadReq misses (Count)
system.cpu0.dcache.ReadReq.misses::total      2711008                       # number of ReadReq misses (Count)
system.cpu0.dcache.ReadReq.missLatency::cpu0.data 185928505380                       # number of ReadReq miss ticks (Tick)
system.cpu0.dcache.ReadReq.missLatency::total 185928505380                       # number of ReadReq miss ticks (Tick)
system.cpu0.dcache.ReadReq.accesses::cpu0.data     16649064                       # number of ReadReq accesses(hits+misses) (Count)
system.cpu0.dcache.ReadReq.accesses::total     16649064                       # number of ReadReq accesses(hits+misses) (Count)
system.cpu0.dcache.ReadReq.missRate::cpu0.data     0.162832                       # miss rate for ReadReq accesses (Ratio)
system.cpu0.dcache.ReadReq.missRate::total     0.162832                       # miss rate for ReadReq accesses (Ratio)
system.cpu0.dcache.ReadReq.avgMissLatency::cpu0.data 68582.794805                       # average ReadReq miss latency ((Tick/Count))
system.cpu0.dcache.ReadReq.avgMissLatency::total 68582.794805                       # average ReadReq miss latency ((Tick/Count))
system.cpu0.dcache.ReadReq.mshrHits::cpu0.data      2251577                       # number of ReadReq MSHR hits (Count)
system.cpu0.dcache.ReadReq.mshrHits::total      2251577                       # number of ReadReq MSHR hits (Count)
system.cpu0.dcache.ReadReq.mshrMisses::cpu0.data       459431                       # number of ReadReq MSHR misses (Count)
system.cpu0.dcache.ReadReq.mshrMisses::total       459431                       # number of ReadReq MSHR misses (Count)
system.cpu0.dcache.ReadReq.mshrMissLatency::cpu0.data  37053563013                       # number of ReadReq MSHR miss ticks (Tick)
system.cpu0.dcache.ReadReq.mshrMissLatency::total  37053563013                       # number of ReadReq MSHR miss ticks (Tick)
system.cpu0.dcache.ReadReq.mshrMissRate::cpu0.data     0.027595                       # mshr miss rate for ReadReq accesses (Ratio)
system.cpu0.dcache.ReadReq.mshrMissRate::total     0.027595                       # mshr miss rate for ReadReq accesses (Ratio)
system.cpu0.dcache.ReadReq.avgMshrMissLatency::cpu0.data 80650.985704                       # average ReadReq mshr miss latency ((Tick/Count))
system.cpu0.dcache.ReadReq.avgMshrMissLatency::total 80650.985704                       # average ReadReq mshr miss latency ((Tick/Count))
system.cpu0.dcache.WriteReq.hits::cpu0.data      6476643                       # number of WriteReq hits (Count)
system.cpu0.dcache.WriteReq.hits::total       6476643                       # number of WriteReq hits (Count)
system.cpu0.dcache.WriteReq.misses::cpu0.data       906391                       # number of WriteReq misses (Count)
system.cpu0.dcache.WriteReq.misses::total       906391                       # number of WriteReq misses (Count)
system.cpu0.dcache.WriteReq.missLatency::cpu0.data  34329576057                       # number of WriteReq miss ticks (Tick)
system.cpu0.dcache.WriteReq.missLatency::total  34329576057                       # number of WriteReq miss ticks (Tick)
system.cpu0.dcache.WriteReq.accesses::cpu0.data      7383034                       # number of WriteReq accesses(hits+misses) (Count)
system.cpu0.dcache.WriteReq.accesses::total      7383034                       # number of WriteReq accesses(hits+misses) (Count)
system.cpu0.dcache.WriteReq.missRate::cpu0.data     0.122767                       # miss rate for WriteReq accesses (Ratio)
system.cpu0.dcache.WriteReq.missRate::total     0.122767                       # miss rate for WriteReq accesses (Ratio)
system.cpu0.dcache.WriteReq.avgMissLatency::cpu0.data 37875.018681                       # average WriteReq miss latency ((Tick/Count))
system.cpu0.dcache.WriteReq.avgMissLatency::total 37875.018681                       # average WriteReq miss latency ((Tick/Count))
system.cpu0.dcache.WriteReq.mshrHits::cpu0.data            9                       # number of WriteReq MSHR hits (Count)
system.cpu0.dcache.WriteReq.mshrHits::total            9                       # number of WriteReq MSHR hits (Count)
system.cpu0.dcache.WriteReq.mshrMisses::cpu0.data       906382                       # number of WriteReq MSHR misses (Count)
system.cpu0.dcache.WriteReq.mshrMisses::total       906382                       # number of WriteReq MSHR misses (Count)
system.cpu0.dcache.WriteReq.mshrMissLatency::cpu0.data  33725608296                       # number of WriteReq MSHR miss ticks (Tick)
system.cpu0.dcache.WriteReq.mshrMissLatency::total  33725608296                       # number of WriteReq MSHR miss ticks (Tick)
system.cpu0.dcache.WriteReq.mshrMissRate::cpu0.data     0.122766                       # mshr miss rate for WriteReq accesses (Ratio)
system.cpu0.dcache.WriteReq.mshrMissRate::total     0.122766                       # mshr miss rate for WriteReq accesses (Ratio)
system.cpu0.dcache.WriteReq.avgMshrMissLatency::cpu0.data 37209.044637                       # average WriteReq mshr miss latency ((Tick/Count))
system.cpu0.dcache.WriteReq.avgMshrMissLatency::total 37209.044637                       # average WriteReq mshr miss latency ((Tick/Count))
system.cpu0.dcache.power_state.pwrStateResidencyTicks::UNDEFINED  67295870100                       # Cumulative time (in ticks) in various power states (Tick)
system.cpu0.dcache.tags.tagsInUse          511.736331                       # Average ticks per tags in use ((Tick/Count))
system.cpu0.dcache.tags.totalRefs            21781097                       # Total number of references to valid blocks. (Count)
system.cpu0.dcache.tags.sampledRefs           1364004                       # Sample count of references to valid blocks. (Count)
system.cpu0.dcache.tags.avgRefs             15.968499                       # Average number of references to valid blocks. ((Count/Count))
system.cpu0.dcache.tags.warmupTick             189144                       # The tick when the warmup percentage was hit. (Tick)
system.cpu0.dcache.tags.occupancies::cpu0.data   511.736331                       # Average occupied blocks per tick, per requestor ((Count/Tick))
system.cpu0.dcache.tags.avgOccs::cpu0.data     0.999485                       # Average percentage of cache occupancy ((Ratio/Tick))
system.cpu0.dcache.tags.avgOccs::total       0.999485                       # Average percentage of cache occupancy ((Ratio/Tick))
system.cpu0.dcache.tags.occupanciesTaskId::1024          512                       # Occupied blocks per task id (Count)
system.cpu0.dcache.tags.ageTaskId_1024::0           76                       # Occupied blocks per task id, per block age (Count)
system.cpu0.dcache.tags.ageTaskId_1024::1          427                       # Occupied blocks per task id, per block age (Count)
system.cpu0.dcache.tags.ageTaskId_1024::2            2                       # Occupied blocks per task id, per block age (Count)
system.cpu0.dcache.tags.ageTaskId_1024::3            7                       # Occupied blocks per task id, per block age (Count)
system.cpu0.dcache.tags.ratioOccsTaskId::1024            1                       # Ratio of occupied blocks and all blocks, per task id (Ratio)
system.cpu0.dcache.tags.tagAccesses         193625172                       # Number of tag accesses (Count)
system.cpu0.dcache.tags.dataAccesses        193625172                       # Number of data accesses (Count)
system.cpu0.dcache.tags.power_state.pwrStateResidencyTicks::UNDEFINED  67295870100                       # Cumulative time (in ticks) in various power states (Tick)
system.cpu0.decode.idleCycles                 8366574                       # Number of cycles decode is idle (Cycle)
system.cpu0.decode.blockedCycles            165668173                       # Number of cycles decode is blocked (Cycle)
system.cpu0.decode.runCycles                  4660784                       # Number of cycles decode is running (Cycle)
system.cpu0.decode.unblockCycles             22925253                       # Number of cycles decode is unblocking (Cycle)
system.cpu0.decode.squashCycles                  9483                       # Number of cycles decode is squashing (Cycle)
system.cpu0.decode.branchResolved             5836015                       # Number of times decode resolved a branch (Count)
system.cpu0.decode.branchMispred                  908                       # Number of times decode detected a branch misprediction (Count)
system.cpu0.decode.decodedInsts             220011216                       # Number of instructions handled by decode (Count)
system.cpu0.decode.squashedInsts                 4348                       # Number of squashed instructions handled by decode (Count)
system.cpu0.dtb_walker_cache.blockedCycles::no_mshrs            0                       # number of cycles access was blocked (Cycle)
system.cpu0.dtb_walker_cache.blockedCycles::no_targets            0                       # number of cycles access was blocked (Cycle)
system.cpu0.dtb_walker_cache.blockedCauses::no_mshrs            0                       # number of times access was blocked (Count)
system.cpu0.dtb_walker_cache.blockedCauses::no_targets            0                       # number of times access was blocked (Count)
system.cpu0.dtb_walker_cache.avgBlocked::no_mshrs          nan                       # average number of cycles each access was blocked ((Cycle/Count))
system.cpu0.dtb_walker_cache.avgBlocked::no_targets          nan                       # average number of cycles each access was blocked ((Cycle/Count))
system.cpu0.dtb_walker_cache.replacements            0                       # number of replacements (Count)
system.cpu0.dtb_walker_cache.power_state.pwrStateResidencyTicks::UNDEFINED  67295870100                       # Cumulative time (in ticks) in various power states (Tick)
system.cpu0.dtb_walker_cache.tags.tagsInUse            0                       # Average ticks per tags in use ((Tick/Count))
system.cpu0.dtb_walker_cache.tags.totalRefs            0                       # Total number of references to valid blocks. (Count)
system.cpu0.dtb_walker_cache.tags.sampledRefs            0                       # Sample count of references to valid blocks. (Count)
system.cpu0.dtb_walker_cache.tags.avgRefs          nan                       # Average number of references to valid blocks. ((Count/Count))
system.cpu0.dtb_walker_cache.tags.warmupTick            0                       # The tick when the warmup percentage was hit. (Tick)
system.cpu0.dtb_walker_cache.tags.tagAccesses            0                       # Number of tag accesses (Count)
system.cpu0.dtb_walker_cache.tags.dataAccesses            0                       # Number of data accesses (Count)
system.cpu0.dtb_walker_cache.tags.power_state.pwrStateResidencyTicks::UNDEFINED  67295870100                       # Cumulative time (in ticks) in various power states (Tick)
system.cpu0.fetch.icacheStallCycles          16457097                       # Number of cycles fetch is stalled on an Icache miss (Cycle)
system.cpu0.fetch.insts                     127734130                       # Number of instructions fetch has processed (Count)
system.cpu0.fetch.branches                    8010974                       # Number of branches that fetch encountered (Count)
system.cpu0.fetch.predictedBranches           7944512                       # Number of branches that fetch has predicted taken (Count)
system.cpu0.fetch.cycles                    185156575                       # Number of cycles fetch has run and was not squashing or blocked (Cycle)
system.cpu0.fetch.squashCycles                  20746                       # Number of cycles fetch has spent squashing (Cycle)
system.cpu0.fetch.miscStallCycles                 808                       # Number of cycles fetch has spent waiting on interrupts, or bad addresses, or out of MSHRs (Cycle)
system.cpu0.fetch.pendingTrapStallCycles         5393                       # Number of stall cycles due to pending traps (Cycle)
system.cpu0.fetch.icacheWaitRetryStallCycles           21                       # Number of stall cycles due to full MSHR (Cycle)
system.cpu0.fetch.cacheLines                 16373227                       # Number of cache lines fetched (Count)
system.cpu0.fetch.icacheSquashes                 2625                       # Number of outstanding Icache misses that were squashed (Count)
system.cpu0.fetch.nisnDist::samples         201630267                       # Number of instructions fetched each cycle (Total) (Count)
system.cpu0.fetch.nisnDist::mean             1.091922                       # Number of instructions fetched each cycle (Total) (Count)
system.cpu0.fetch.nisnDist::stdev            2.482402                       # Number of instructions fetched each cycle (Total) (Count)
system.cpu0.fetch.nisnDist::underflows              0      0.00%      0.00% # Number of instructions fetched each cycle (Total) (Count)
system.cpu0.fetch.nisnDist::0               162997457     80.84%     80.84% # Number of instructions fetched each cycle (Total) (Count)
system.cpu0.fetch.nisnDist::1                 2698122      1.34%     82.18% # Number of instructions fetched each cycle (Total) (Count)
system.cpu0.fetch.nisnDist::2                 3036561      1.51%     83.68% # Number of instructions fetched each cycle (Total) (Count)
system.cpu0.fetch.nisnDist::3                 3828623      1.90%     85.58% # Number of instructions fetched each cycle (Total) (Count)
system.cpu0.fetch.nisnDist::4                 2432414      1.21%     86.79% # Number of instructions fetched each cycle (Total) (Count)
system.cpu0.fetch.nisnDist::5                 4271386      2.12%     88.91% # Number of instructions fetched each cycle (Total) (Count)
system.cpu0.fetch.nisnDist::6                 4037616      2.00%     90.91% # Number of instructions fetched each cycle (Total) (Count)
system.cpu0.fetch.nisnDist::7                 2029642      1.01%     91.92% # Number of instructions fetched each cycle (Total) (Count)
system.cpu0.fetch.nisnDist::8                16298446      8.08%    100.00% # Number of instructions fetched each cycle (Total) (Count)
system.cpu0.fetch.nisnDist::overflows               0      0.00%    100.00% # Number of instructions fetched each cycle (Total) (Count)
system.cpu0.fetch.nisnDist::min_value               0                       # Number of instructions fetched each cycle (Total) (Count)
system.cpu0.fetch.nisnDist::max_value               8                       # Number of instructions fetched each cycle (Total) (Count)
system.cpu0.fetch.nisnDist::total           201630267                       # Number of instructions fetched each cycle (Total) (Count)
system.cpu0.fetch.branchRate                 0.039683                       # Number of branch fetches per cycle (Ratio)
system.cpu0.fetch.rate                       0.632748                       # Number of inst fetches per cycle ((Count/Cycle))
system.cpu0.icache.demandHits::cpu0.inst     16370678                       # number of demand (read+write) hits (Count)
system.cpu0.icache.demandHits::total         16370678                       # number of demand (read+write) hits (Count)
system.cpu0.icache.overallHits::cpu0.inst     16370678                       # number of overall hits (Count)
system.cpu0.icache.overallHits::total        16370678                       # number of overall hits (Count)
system.cpu0.icache.demandMisses::cpu0.inst         2549                       # number of demand (read+write) misses (Count)
system.cpu0.icache.demandMisses::total           2549                       # number of demand (read+write) misses (Count)
system.cpu0.icache.overallMisses::cpu0.inst         2549                       # number of overall misses (Count)
system.cpu0.icache.overallMisses::total          2549                       # number of overall misses (Count)
system.cpu0.icache.demandMissLatency::cpu0.inst    204142985                       # number of demand (read+write) miss ticks (Tick)
system.cpu0.icache.demandMissLatency::total    204142985                       # number of demand (read+write) miss ticks (Tick)
system.cpu0.icache.overallMissLatency::cpu0.inst    204142985                       # number of overall miss ticks (Tick)
system.cpu0.icache.overallMissLatency::total    204142985                       # number of overall miss ticks (Tick)
system.cpu0.icache.demandAccesses::cpu0.inst     16373227                       # number of demand (read+write) accesses (Count)
system.cpu0.icache.demandAccesses::total     16373227                       # number of demand (read+write) accesses (Count)
system.cpu0.icache.overallAccesses::cpu0.inst     16373227                       # number of overall (read+write) accesses (Count)
system.cpu0.icache.overallAccesses::total     16373227                       # number of overall (read+write) accesses (Count)
system.cpu0.icache.demandMissRate::cpu0.inst     0.000156                       # miss rate for demand accesses (Ratio)
system.cpu0.icache.demandMissRate::total     0.000156                       # miss rate for demand accesses (Ratio)
system.cpu0.icache.overallMissRate::cpu0.inst     0.000156                       # miss rate for overall accesses (Ratio)
system.cpu0.icache.overallMissRate::total     0.000156                       # miss rate for overall accesses (Ratio)
system.cpu0.icache.demandAvgMissLatency::cpu0.inst 80087.479404                       # average overall miss latency in ticks ((Tick/Count))
system.cpu0.icache.demandAvgMissLatency::total 80087.479404                       # average overall miss latency in ticks ((Tick/Count))
system.cpu0.icache.overallAvgMissLatency::cpu0.inst 80087.479404                       # average overall miss latency ((Tick/Count))
system.cpu0.icache.overallAvgMissLatency::total 80087.479404                       # average overall miss latency ((Tick/Count))
system.cpu0.icache.blockedCycles::no_mshrs         1729                       # number of cycles access was blocked (Cycle)
system.cpu0.icache.blockedCycles::no_targets            0                       # number of cycles access was blocked (Cycle)
system.cpu0.icache.blockedCauses::no_mshrs           12                       # number of times access was blocked (Count)
system.cpu0.icache.blockedCauses::no_targets            0                       # number of times access was blocked (Count)
system.cpu0.icache.avgBlocked::no_mshrs    144.083333                       # average number of cycles each access was blocked ((Cycle/Count))
system.cpu0.icache.avgBlocked::no_targets          nan                       # average number of cycles each access was blocked ((Cycle/Count))
system.cpu0.icache.writebacks::writebacks         1391                       # number of writebacks (Count)
system.cpu0.icache.writebacks::total             1391                       # number of writebacks (Count)
system.cpu0.icache.demandMshrHits::cpu0.inst          645                       # number of demand (read+write) MSHR hits (Count)
system.cpu0.icache.demandMshrHits::total          645                       # number of demand (read+write) MSHR hits (Count)
system.cpu0.icache.overallMshrHits::cpu0.inst          645                       # number of overall MSHR hits (Count)
system.cpu0.icache.overallMshrHits::total          645                       # number of overall MSHR hits (Count)
system.cpu0.icache.demandMshrMisses::cpu0.inst         1904                       # number of demand (read+write) MSHR misses (Count)
system.cpu0.icache.demandMshrMisses::total         1904                       # number of demand (read+write) MSHR misses (Count)
system.cpu0.icache.overallMshrMisses::cpu0.inst         1904                       # number of overall MSHR misses (Count)
system.cpu0.icache.overallMshrMisses::total         1904                       # number of overall MSHR misses (Count)
system.cpu0.icache.demandMshrMissLatency::cpu0.inst    157473035                       # number of demand (read+write) MSHR miss ticks (Tick)
system.cpu0.icache.demandMshrMissLatency::total    157473035                       # number of demand (read+write) MSHR miss ticks (Tick)
system.cpu0.icache.overallMshrMissLatency::cpu0.inst    157473035                       # number of overall MSHR miss ticks (Tick)
system.cpu0.icache.overallMshrMissLatency::total    157473035                       # number of overall MSHR miss ticks (Tick)
system.cpu0.icache.demandMshrMissRate::cpu0.inst     0.000116                       # mshr miss ratio for demand accesses (Ratio)
system.cpu0.icache.demandMshrMissRate::total     0.000116                       # mshr miss ratio for demand accesses (Ratio)
system.cpu0.icache.overallMshrMissRate::cpu0.inst     0.000116                       # mshr miss ratio for overall accesses (Ratio)
system.cpu0.icache.overallMshrMissRate::total     0.000116                       # mshr miss ratio for overall accesses (Ratio)
system.cpu0.icache.demandAvgMshrMissLatency::cpu0.inst 82706.425945                       # average overall mshr miss latency ((Tick/Count))
system.cpu0.icache.demandAvgMshrMissLatency::total 82706.425945                       # average overall mshr miss latency ((Tick/Count))
system.cpu0.icache.overallAvgMshrMissLatency::cpu0.inst 82706.425945                       # average overall mshr miss latency ((Tick/Count))
system.cpu0.icache.overallAvgMshrMissLatency::total 82706.425945                       # average overall mshr miss latency ((Tick/Count))
system.cpu0.icache.replacements                  1391                       # number of replacements (Count)
system.cpu0.icache.ReadReq.hits::cpu0.inst     16370678                       # number of ReadReq hits (Count)
system.cpu0.icache.ReadReq.hits::total       16370678                       # number of ReadReq hits (Count)
system.cpu0.icache.ReadReq.misses::cpu0.inst         2549                       # number of ReadReq misses (Count)
system.cpu0.icache.ReadReq.misses::total         2549                       # number of ReadReq misses (Count)
system.cpu0.icache.ReadReq.missLatency::cpu0.inst    204142985                       # number of ReadReq miss ticks (Tick)
system.cpu0.icache.ReadReq.missLatency::total    204142985                       # number of ReadReq miss ticks (Tick)
system.cpu0.icache.ReadReq.accesses::cpu0.inst     16373227                       # number of ReadReq accesses(hits+misses) (Count)
system.cpu0.icache.ReadReq.accesses::total     16373227                       # number of ReadReq accesses(hits+misses) (Count)
system.cpu0.icache.ReadReq.missRate::cpu0.inst     0.000156                       # miss rate for ReadReq accesses (Ratio)
system.cpu0.icache.ReadReq.missRate::total     0.000156                       # miss rate for ReadReq accesses (Ratio)
system.cpu0.icache.ReadReq.avgMissLatency::cpu0.inst 80087.479404                       # average ReadReq miss latency ((Tick/Count))
system.cpu0.icache.ReadReq.avgMissLatency::total 80087.479404                       # average ReadReq miss latency ((Tick/Count))
system.cpu0.icache.ReadReq.mshrHits::cpu0.inst          645                       # number of ReadReq MSHR hits (Count)
system.cpu0.icache.ReadReq.mshrHits::total          645                       # number of ReadReq MSHR hits (Count)
system.cpu0.icache.ReadReq.mshrMisses::cpu0.inst         1904                       # number of ReadReq MSHR misses (Count)
system.cpu0.icache.ReadReq.mshrMisses::total         1904                       # number of ReadReq MSHR misses (Count)
system.cpu0.icache.ReadReq.mshrMissLatency::cpu0.inst    157473035                       # number of ReadReq MSHR miss ticks (Tick)
system.cpu0.icache.ReadReq.mshrMissLatency::total    157473035                       # number of ReadReq MSHR miss ticks (Tick)
system.cpu0.icache.ReadReq.mshrMissRate::cpu0.inst     0.000116                       # mshr miss rate for ReadReq accesses (Ratio)
system.cpu0.icache.ReadReq.mshrMissRate::total     0.000116                       # mshr miss rate for ReadReq accesses (Ratio)
system.cpu0.icache.ReadReq.avgMshrMissLatency::cpu0.inst 82706.425945                       # average ReadReq mshr miss latency ((Tick/Count))
system.cpu0.icache.ReadReq.avgMshrMissLatency::total 82706.425945                       # average ReadReq mshr miss latency ((Tick/Count))
system.cpu0.icache.power_state.pwrStateResidencyTicks::UNDEFINED  67295870100                       # Cumulative time (in ticks) in various power states (Tick)
system.cpu0.icache.tags.tagsInUse          511.824761                       # Average ticks per tags in use ((Tick/Count))
system.cpu0.icache.tags.totalRefs            16372581                       # Total number of references to valid blocks. (Count)
system.cpu0.icache.tags.sampledRefs              1903                       # Sample count of references to valid blocks. (Count)
system.cpu0.icache.tags.avgRefs           8603.563321                       # Average number of references to valid blocks. ((Count/Count))
system.cpu0.icache.tags.warmupTick              92241                       # The tick when the warmup percentage was hit. (Tick)
system.cpu0.icache.tags.occupancies::cpu0.inst   511.824761                       # Average occupied blocks per tick, per requestor ((Count/Tick))
system.cpu0.icache.tags.avgOccs::cpu0.inst     0.999658                       # Average percentage of cache occupancy ((Ratio/Tick))
system.cpu0.icache.tags.avgOccs::total       0.999658                       # Average percentage of cache occupancy ((Ratio/Tick))
system.cpu0.icache.tags.occupanciesTaskId::1024          512                       # Occupied blocks per task id (Count)
system.cpu0.icache.tags.ageTaskId_1024::0          124                       # Occupied blocks per task id, per block age (Count)
system.cpu0.icache.tags.ageTaskId_1024::1          200                       # Occupied blocks per task id, per block age (Count)
system.cpu0.icache.tags.ageTaskId_1024::3            1                       # Occupied blocks per task id, per block age (Count)
system.cpu0.icache.tags.ageTaskId_1024::4          187                       # Occupied blocks per task id, per block age (Count)
system.cpu0.icache.tags.ratioOccsTaskId::1024            1                       # Ratio of occupied blocks and all blocks, per task id (Ratio)
system.cpu0.icache.tags.tagAccesses         130987719                       # Number of tag accesses (Count)
system.cpu0.icache.tags.dataAccesses        130987719                       # Number of data accesses (Count)
system.cpu0.icache.tags.power_state.pwrStateResidencyTicks::UNDEFINED  67295870100                       # Cumulative time (in ticks) in various power states (Tick)
system.cpu0.iew.idleCycles                          0                       # Number of cycles IEW is idle (Cycle)
system.cpu0.iew.squashCycles                     9483                       # Number of cycles IEW is squashing (Cycle)
system.cpu0.iew.blockCycles                  41002240                       # Number of cycles IEW is blocking (Cycle)
system.cpu0.iew.unblockCycles                20426463                       # Number of cycles IEW is unblocking (Cycle)
system.cpu0.iew.dispatchedInsts             219917469                       # Number of instructions dispatched to IQ (Count)
system.cpu0.iew.dispSquashedInsts                 614                       # Number of squashed instructions skipped by dispatch (Count)
system.cpu0.iew.dispLoadInsts                19043190                       # Number of dispatched load instructions (Count)
system.cpu0.iew.dispStoreInsts                7419817                       # Number of dispatched store instructions (Count)
system.cpu0.iew.dispNonSpecInsts                  632                       # Number of dispatched non-speculative instructions (Count)
system.cpu0.iew.iqFullEvents                   101758                       # Number of times the IQ has become full, causing a stall (Count)
system.cpu0.iew.lsqFullEvents                20150253                       # Number of times the LSQ has become full, causing a stall (Count)
system.cpu0.iew.memOrderViolationEvents           196                       # Number of memory order violations (Count)
system.cpu0.iew.predictedTakenIncorrect          2363                       # Number of branches that were predicted taken incorrectly (Count)
system.cpu0.iew.predictedNotTakenIncorrect         6022                       # Number of branches that were predicted not taken incorrectly (Count)
system.cpu0.iew.branchMispredicts                8385                       # Number of branch mispredicts detected at execute (Count)
system.cpu0.iew.instsToCommit               219722194                       # Cumulative count of insts sent to commit (Count)
system.cpu0.iew.writebackCount              219710681                       # Cumulative count of insts written-back (Count)
system.cpu0.iew.producerInst                165276927                       # Number of instructions producing a value (Count)
system.cpu0.iew.consumerInst                307002883                       # Number of instructions consuming a value (Count)
system.cpu0.iew.wbRate                       1.088367                       # Insts written-back per cycle ((Count/Cycle))
system.cpu0.iew.wbFanout                     0.538356                       # Average fanout of values written-back ((Count/Count))
system.cpu0.interrupts.clk_domain.clock          5328                       # Clock period in ticks (Tick)
system.cpu0.itb_walker_cache.blockedCycles::no_mshrs            0                       # number of cycles access was blocked (Cycle)
system.cpu0.itb_walker_cache.blockedCycles::no_targets            0                       # number of cycles access was blocked (Cycle)
system.cpu0.itb_walker_cache.blockedCauses::no_mshrs            0                       # number of times access was blocked (Count)
system.cpu0.itb_walker_cache.blockedCauses::no_targets            0                       # number of times access was blocked (Count)
system.cpu0.itb_walker_cache.avgBlocked::no_mshrs          nan                       # average number of cycles each access was blocked ((Cycle/Count))
[...]
system.mem_ctrls.dram.perBankWrBursts::11        28728                       # Per bank write bursts (Count)
system.mem_ctrls.dram.perBankWrBursts::12        28735                       # Per bank write bursts (Count)
system.mem_ctrls.dram.perBankWrBursts::13        28433                       # Per bank write bursts (Count)
system.mem_ctrls.dram.perBankWrBursts::14        28471                       # Per bank write bursts (Count)
system.mem_ctrls.dram.perBankWrBursts::15        28936                       # Per bank write bursts (Count)
system.mem_ctrls.dram.totQLat             30966259859                       # Total ticks spent queuing (Tick)
system.mem_ctrls.dram.totBusLat            6151785000                       # Total ticks spent in databus transfers (Tick)
system.mem_ctrls.dram.totMemAccLat        54035453609                       # Total ticks spent from burst creation until serviced by the DRAM (Tick)
system.mem_ctrls.dram.avgQLat                25168.52                       # Average queueing delay per DRAM burst ((Tick/Count))
system.mem_ctrls.dram.avgBusLat               5000.00                       # Average bus latency per DRAM burst ((Tick/Count))
system.mem_ctrls.dram.avgMemAccLat           43918.52                       # Average memory access latency per DRAM burst ((Tick/Count))
system.mem_ctrls.dram.readRowHits              702688                       # Number of row buffer hits during reads (Count)
system.mem_ctrls.dram.writeRowHits             238922                       # Number of row buffer hits during writes (Count)
system.mem_ctrls.dram.readRowHitRate            57.11                       # Row buffer hit rate for reads (Ratio)
system.mem_ctrls.dram.writeRowHitRate           51.86                       # Row buffer hit rate for writes (Ratio)
system.mem_ctrls.dram.bytesPerActivate::samples       749415                       # Bytes accessed per row activation (Byte)
system.mem_ctrls.dram.bytesPerActivate::mean   144.412247                       # Bytes accessed per row activation (Byte)
system.mem_ctrls.dram.bytesPerActivate::gmean    93.262956                       # Bytes accessed per row activation (Byte)
system.mem_ctrls.dram.bytesPerActivate::stdev   205.787386                       # Bytes accessed per row activation (Byte)
system.mem_ctrls.dram.bytesPerActivate::0-127       564828     75.37%     75.37% # Bytes accessed per row activation (Byte)
system.mem_ctrls.dram.bytesPerActivate::128-255        79760     10.64%     86.01% # Bytes accessed per row activation (Byte)
system.mem_ctrls.dram.bytesPerActivate::256-383        31843      4.25%     90.26% # Bytes accessed per row activation (Byte)
system.mem_ctrls.dram.bytesPerActivate::384-511        19691      2.63%     92.89% # Bytes accessed per row activation (Byte)
system.mem_ctrls.dram.bytesPerActivate::512-639        13455      1.80%     94.68% # Bytes accessed per row activation (Byte)
system.mem_ctrls.dram.bytesPerActivate::640-767         8444      1.13%     95.81% # Bytes accessed per row activation (Byte)
system.mem_ctrls.dram.bytesPerActivate::768-895         5782      0.77%     96.58% # Bytes accessed per row activation (Byte)
system.mem_ctrls.dram.bytesPerActivate::896-1023         4114      0.55%     97.13% # Bytes accessed per row activation (Byte)
system.mem_ctrls.dram.bytesPerActivate::1024-1151        21498      2.87%    100.00% # Bytes accessed per row activation (Byte)
system.mem_ctrls.dram.bytesPerActivate::total       749415                       # Bytes accessed per row activation (Byte)
system.mem_ctrls.dram.bytesRead              78742848                       # Total bytes read (Byte)
system.mem_ctrls.dram.bytesWritten           29483584                       # Total bytes written (Byte)
system.mem_ctrls.dram.avgRdBW             1170.099263                       # Average DRAM read bandwidth in MiBytes/s ((Byte/Second))
system.mem_ctrls.dram.avgWrBW              438.118772                       # Average DRAM write bandwidth in MiBytes/s ((Byte/Second))
system.mem_ctrls.dram.peakBW                 12800.00                       # Theoretical peak bandwidth in MiByte/s ((Byte/Second))
system.mem_ctrls.dram.busUtil                   12.56                       # Data bus utilization in percentage (Ratio)
system.mem_ctrls.dram.busUtilRead                9.14                       # Data bus utilization in percentage for reads (Ratio)
system.mem_ctrls.dram.busUtilWrite               3.42                       # Data bus utilization in percentage for writes (Ratio)
system.mem_ctrls.dram.pageHitRate               55.68                       # Row buffer hit rate, read and write combined (Ratio)
system.mem_ctrls.dram.power_state.pwrStateResidencyTicks::UNDEFINED  67295870100                       # Cumulative time (in ticks) in various power states (Tick)
system.mem_ctrls.dram.rank0.actEnergy      2684318700                       # Energy for activate commands per rank (pJ) (Joule)
system.mem_ctrls.dram.rank0.preEnergy      1426726455                       # Energy for precharge commands per rank (pJ) (Joule)
system.mem_ctrls.dram.rank0.readEnergy     4402131300                       # Energy for read commands per rank (pJ) (Joule)
system.mem_ctrls.dram.rank0.writeEnergy    1207479960                       # Energy for write commands per rank (pJ) (Joule)
system.mem_ctrls.dram.rank0.refreshEnergy 5311718880.000001                       # Energy for refresh commands per rank (pJ) (Joule)
system.mem_ctrls.dram.rank0.actBackEnergy  24431750400                       # Energy for active background per rank (pJ) (Joule)
system.mem_ctrls.dram.rank0.preBackEnergy   5267508960                       # Energy for precharge background per rank (pJ) (Joule)
system.mem_ctrls.dram.rank0.actPowerDownEnergy            0                       # Energy for active power-down per rank (pJ) (Joule)
system.mem_ctrls.dram.rank0.prePowerDownEnergy            0                       # Energy for precharge power-down per rank (pJ) (Joule)
system.mem_ctrls.dram.rank0.selfRefreshEnergy            0                       # Energy for self refresh per rank (pJ) (Joule)
system.mem_ctrls.dram.rank0.totalEnergy   44731634655                       # Total energy per rank (pJ) (Joule)
system.mem_ctrls.dram.rank0.averagePower   664.701037                       # Core power per rank (mW) (Watt)
system.mem_ctrls.dram.rank0.totalIdleTime            0                       # Total Idle time Per DRAM Rank (Tick)
system.mem_ctrls.dram.rank0.pwrStateTime::IDLE  13414510743                       # Time in different power states (Tick)
system.mem_ctrls.dram.rank0.pwrStateTime::REF   2246920000                       # Time in different power states (Tick)
system.mem_ctrls.dram.rank0.pwrStateTime::SREF            0                       # Time in different power states (Tick)
system.mem_ctrls.dram.rank0.pwrStateTime::PRE_PDN            0                       # Time in different power states (Tick)
system.mem_ctrls.dram.rank0.pwrStateTime::ACT  51634439357                       # Time in different power states (Tick)
system.mem_ctrls.dram.rank0.pwrStateTime::ACT_PDN            0                       # Time in different power states (Tick)
system.mem_ctrls.dram.rank1.actEnergy      2666597220                       # Energy for activate commands per rank (pJ) (Joule)
system.mem_ctrls.dram.rank1.preEnergy      1417303470                       # Energy for precharge commands per rank (pJ) (Joule)
system.mem_ctrls.dram.rank1.readEnergy     4382617680                       # Energy for read commands per rank (pJ) (Joule)
system.mem_ctrls.dram.rank1.writeEnergy    1197274860                       # Energy for write commands per rank (pJ) (Joule)
system.mem_ctrls.dram.rank1.refreshEnergy 5311718880.000001                       # Energy for refresh commands per rank (pJ) (Joule)
system.mem_ctrls.dram.rank1.actBackEnergy  24381764250                       # Energy for active background per rank (pJ) (Joule)
system.mem_ctrls.dram.rank1.preBackEnergy   5309602560                       # Energy for precharge background per rank (pJ) (Joule)
system.mem_ctrls.dram.rank1.actPowerDownEnergy            0                       # Energy for active power-down per rank (pJ) (Joule)
system.mem_ctrls.dram.rank1.prePowerDownEnergy            0                       # Energy for precharge power-down per rank (pJ) (Joule)
system.mem_ctrls.dram.rank1.selfRefreshEnergy            0                       # Energy for self refresh per rank (pJ) (Joule)
system.mem_ctrls.dram.rank1.totalEnergy   44666878920                       # Total energy per rank (pJ) (Joule)
system.mem_ctrls.dram.rank1.averagePower   663.738783                       # Core power per rank (mW) (Watt)
system.mem_ctrls.dram.rank1.totalIdleTime            0                       # Total Idle time Per DRAM Rank (Tick)
system.mem_ctrls.dram.rank1.pwrStateTime::IDLE  13526800694                       # Time in different power states (Tick)
system.mem_ctrls.dram.rank1.pwrStateTime::REF   2246920000                       # Time in different power states (Tick)
system.mem_ctrls.dram.rank1.pwrStateTime::SREF            0                       # Time in different power states (Tick)
system.mem_ctrls.dram.rank1.pwrStateTime::PRE_PDN            0                       # Time in different power states (Tick)
system.mem_ctrls.dram.rank1.pwrStateTime::ACT  51522149406                       # Time in different power states (Tick)
system.mem_ctrls.dram.rank1.pwrStateTime::ACT_PDN            0                       # Time in different power states (Tick)
system.mem_ctrls.power_state.pwrStateResidencyTicks::UNDEFINED  67295870100                       # Cumulative time (in ticks) in various power states (Tick)
system.membus.transDist::ReadResp              700696                       # Transaction distribution (Count)
system.membus.transDist::WritebackDirty        460704                       # Transaction distribution (Count)
system.membus.transDist::CleanEvict            652310                       # Transaction distribution (Count)
system.membus.transDist::UpgradeReq              2991                       # Transaction distribution (Count)
system.membus.transDist::ReadExReq             530613                       # Transaction distribution (Count)
system.membus.transDist::ReadExResp            530564                       # Transaction distribution (Count)
system.membus.transDist::ReadSharedReq         700696                       # Transaction distribution (Count)
system.membus.pktCount_system.l3.mem_side_port::system.mem_ctrls.port      3578574                       # Packet count per connected requestor and responder (Count)
system.membus.pktCount_system.l3.mem_side_port::total      3578574                       # Packet count per connected requestor and responder (Count)
system.membus.pktCount::total                 3578574                       # Packet count per connected requestor and responder (Count)
system.membus.pktSize_system.l3.mem_side_port::system.mem_ctrls.port    108285696                       # Cumulative packet size per connected requestor and responder (Byte)
system.membus.pktSize_system.l3.mem_side_port::total    108285696                       # Cumulative packet size per connected requestor and responder (Byte)
system.membus.pktSize::total                108285696                       # Cumulative packet size per connected requestor and responder (Byte)
system.membus.snoops                             3040                       # Total snoops (Count)
system.membus.snoopTraffic                          0                       # Total snoop traffic (Byte)
system.membus.snoopFanout::samples            1234300                       # Request fanout histogram (Count)
system.membus.snoopFanout::mean                     0                       # Request fanout histogram (Count)
system.membus.snoopFanout::stdev                    0                       # Request fanout histogram (Count)
system.membus.snoopFanout::underflows               0      0.00%      0.00% # Request fanout histogram (Count)
system.membus.snoopFanout::0                  1234300    100.00%    100.00% # Request fanout histogram (Count)
system.membus.snoopFanout::1                        0      0.00%    100.00% # Request fanout histogram (Count)
system.membus.snoopFanout::overflows                0      0.00%    100.00% # Request fanout histogram (Count)
system.membus.snoopFanout::min_value                0                       # Request fanout histogram (Count)
system.membus.snoopFanout::max_value                0                       # Request fanout histogram (Count)
system.membus.snoopFanout::total              1234300                       # Request fanout histogram (Count)
system.membus.power_state.pwrStateResidencyTicks::UNDEFINED  67295870100                       # Cumulative time (in ticks) in various power states (Tick)
system.membus.reqLayer4.occupancy          5017797069                       # Layer occupancy (ticks) (Tick)
system.membus.reqLayer4.utilization               0.1                       # Layer utilization (Ratio)
system.membus.respLayer1.occupancy         6670678986                       # Layer occupancy (ticks) (Tick)
system.membus.respLayer1.utilization              0.1                       # Layer utilization (Ratio)
system.membus.snoop_filter.totRequests        2347314                       # Total number of requests made to the snoop filter. (Count)
system.membus.snoop_filter.hitSingleRequests      1118542                       # Number of requests hitting in the snoop filter with a single holder of the requested data. (Count)
system.membus.snoop_filter.hitMultiRequests            0                       # Number of requests hitting in the snoop filter with multiple (>1) holders of the requested data. (Count)
system.membus.snoop_filter.totSnoops                0                       # Total number of snoops made to the snoop filter. (Count)
system.membus.snoop_filter.hitSingleSnoops            0                       # Number of snoops hitting in the snoop filter with a single holder of the requested data. (Count)
system.membus.snoop_filter.hitMultiSnoops            0                       # Number of snoops hitting in the snoop filter with multiple (>1) holders of the requested data. (Count)
system.tol3bus.transDist::ReadResp             787948                       # Transaction distribution (Count)
system.tol3bus.transDist::WritebackDirty      1005490                       # Transaction distribution (Count)
system.tol3bus.transDist::CleanEvict          1562431                       # Transaction distribution (Count)
system.tol3bus.transDist::UpgradeReq             3423                       # Transaction distribution (Count)
system.tol3bus.transDist::UpgradeResp            3423                       # Transaction distribution (Count)
system.tol3bus.transDist::ReadExReq            530725                       # Transaction distribution (Count)
system.tol3bus.transDist::ReadExResp           530725                       # Transaction distribution (Count)
system.tol3bus.transDist::ReadSharedReq        787948                       # Transaction distribution (Count)
system.tol3bus.pktCount_system.cpu0.l2cache.mem_side_port::system.l3.cpu_side_port      1939483                       # Packet count per connected requestor and responder (Count)
system.tol3bus.pktCount_system.cpu1.l2cache.mem_side_port::system.l3.cpu_side_port      1920527                       # Packet count per connected requestor and responder (Count)
system.tol3bus.pktCount::total                3860010                       # Packet count per connected requestor and responder (Count)
system.tol3bus.pktSize_system.cpu0.l2cache.mem_side_port::system.l3.cpu_side_port     58964416                       # Cumulative packet size per connected requestor and responder (Byte)
system.tol3bus.pktSize_system.cpu1.l2cache.mem_side_port::system.l3.cpu_side_port     58511424                       # Cumulative packet size per connected requestor and responder (Byte)
system.tol3bus.pktSize::total               117475840                       # Cumulative packet size per connected requestor and responder (Byte)
system.tol3bus.snoops                         1352103                       # Total snoops (Count)
system.tol3bus.snoopTraffic                  31270592                       # Total snoop traffic (Byte)
system.tol3bus.snoopFanout::samples           2643309                       # Request fanout histogram (Count)
system.tol3bus.snoopFanout::mean             0.147088                       # Request fanout histogram (Count)
system.tol3bus.snoopFanout::stdev            0.359764                       # Request fanout histogram (Count)
system.tol3bus.snoopFanout::underflows              0      0.00%      0.00% # Request fanout histogram (Count)
system.tol3bus.snoopFanout::0                 2259766     85.49%     85.49% # Request fanout histogram (Count)
system.tol3bus.snoopFanout::1                  378287     14.31%     99.80% # Request fanout histogram (Count)
system.tol3bus.snoopFanout::2                    5256      0.20%    100.00% # Request fanout histogram (Count)
system.tol3bus.snoopFanout::overflows               0      0.00%    100.00% # Request fanout histogram (Count)
system.tol3bus.snoopFanout::min_value               0                       # Request fanout histogram (Count)
system.tol3bus.snoopFanout::max_value               2                       # Request fanout histogram (Count)
system.tol3bus.snoopFanout::total             2643309                       # Request fanout histogram (Count)
system.tol3bus.power_state.pwrStateResidencyTicks::UNDEFINED  67295870100                       # Cumulative time (in ticks) in various power states (Tick)
system.tol3bus.reqLayer0.occupancy         1218245520                       # Layer occupancy (ticks) (Tick)
system.tol3bus.reqLayer0.utilization              0.0                       # Layer utilization (Ratio)
system.tol3bus.respLayer0.occupancy         661672172                       # Layer occupancy (ticks) (Tick)
system.tol3bus.respLayer0.utilization             0.0                       # Layer utilization (Ratio)
system.tol3bus.respLayer1.occupancy         656936224                       # Layer occupancy (ticks) (Tick)
system.tol3bus.respLayer1.utilization             0.0                       # Layer utilization (Ratio)
system.tol3bus.snoop_filter.totRequests       2568804                       # Total number of requests made to the snoop filter. (Count)
system.tol3bus.snoop_filter.hitSingleRequests      1250052                       # Number of requests hitting in the snoop filter with a single holder of the requested data. (Count)
system.tol3bus.snoop_filter.hitMultiRequests        31019                       # Number of requests hitting in the snoop filter with multiple (>1) holders of the requested data. (Count)
system.tol3bus.snoop_filter.totSnoops          349186                       # Total number of snoops made to the snoop filter. (Count)
system.tol3bus.snoop_filter.hitSingleSnoops       343930                       # Number of snoops hitting in the snoop filter with a single holder of the requested data. (Count)
system.tol3bus.snoop_filter.hitMultiSnoops         5256                       # Number of snoops hitting in the snoop filter with multiple (>1) holders of the requested data. (Count)
system.voltage_domain.voltage                       1                       # Voltage in Volts (Volt)
system.workload.inst.arm                            0                       # number of arm instructions executed (Count)
system.workload.inst.quiesce                        0                       # number of quiesce instructions executed (Count)

---------- End Simulation Statistics   ----------
