
---------- Begin Simulation Statistics ----------
simSeconds                                   0.006377                       # Number of seconds simulated (Second)
simTicks                                   6377296653                       # Number of ticks simulated (Tick)
finalTick                                  6377296653                       # Number of ticks from beginning of simulation (restored from checkpoints and never reset) (Tick)
simFreq                                  1000000000000                       # The number of ticks per simulated second ((Tick/Second))
hostSeconds                                     59.58                       # Real time elapsed on the host (Second)
hostTickRate                                107034182                       # The number of ticks simulated per host second (ticks/s) ((Tick/Second))
hostMemory                                     806796                       # Number of bytes of host memory used (Byte)
simInsts                                     43971339                       # Number of instructions simulated (Count)
simOps                                       43971666                       # Number of ops (including micro ops) simulated (Count)
hostInstRate                                   737993                       # Simulator instruction rate (inst/s) ((Count/Second))
hostOpRate                                     737997                       # Simulator op (including micro ops) rate (op/s) ((Count/Second))
system.clk_domain.clock                          1000                       # Clock period in ticks (Tick)
system.cpu0.numCycles                        19009132                       # Number of cpu cycles simulated (Cycle)
system.cpu0.numWorkItemsStarted                     0                       # Number of work items this cpu started (Count)
system.cpu0.numWorkItemsCompleted                   0                       # Number of work items this cpu completed (Count)
system.cpu0.instsAdded                       24465218                       # Number of instructions added to the IQ (excludes non-spec) (Count)
system.cpu0.nonSpecInstsAdded                   67373                       # Number of non-speculative instructions added to the IQ (Count)
system.cpu0.instsIssued                      24668142                       # Number of instructions issued (Count)
system.cpu0.squashedInstsIssued                  4578                       # Number of squashed instructions issued (Count)
system.cpu0.squashedInstsExamined              252540                       # Number of squashed instructions iterated over during squash; mainly for profiling (Count)
system.cpu0.squashedOperandsExamined           218831                       # Number of squashed operands that are examined and possibly removed from graph (Count)
system.cpu0.squashedNonSpecRemoved               1023                       # Number of squashed non-spec instructions that were removed (Count)
system.cpu0.numIssuedDist::samples           18920990                       # Number of insts issued each cycle (Count)
system.cpu0.numIssuedDist::mean              1.303745                       # Number of insts issued each cycle (Count)
system.cpu0.numIssuedDist::stdev             1.940186                       # Number of insts issued each cycle (Count)
system.cpu0.numIssuedDist::underflows               0      0.00%      0.00% # Number of insts issued each cycle (Count)
system.cpu0.numIssuedDist::0                 10654418     56.31%     56.31% # Number of insts issued each cycle (Count)
system.cpu0.numIssuedDist::1                  2424660     12.81%     69.12% # Number of insts issued each cycle (Count)
system.cpu0.numIssuedDist::2                  1663677      8.79%     77.92% # Number of insts issued each cycle (Count)
system.cpu0.numIssuedDist::3                  1263741      6.68%     84.60% # Number of insts issued each cycle (Count)
system.cpu0.numIssuedDist::4                  1090430      5.76%     90.36% # Number of insts issued each cycle (Count)
system.cpu0.numIssuedDist::5                   858747      4.54%     94.90% # Number of insts issued each cycle (Count)
system.cpu0.numIssuedDist::6                   516527      2.73%     97.63% # Number of insts issued each cycle (Count)
system.cpu0.numIssuedDist::7                   220032      1.16%     98.79% # Number of insts issued each cycle (Count)
system.cpu0.numIssuedDist::8                   228758      1.21%    100.00% # Number of insts issued each cycle (Count)
system.cpu0.numIssuedDist::overflows                0      0.00%    100.00% # Number of insts issued each cycle (Count)
system.cpu0.numIssuedDist::min_value                0                       # Number of insts issued each cycle (Count)
system.cpu0.numIssuedDist::max_value                8                       # Number of insts issued each cycle (Count)
system.cpu0.numIssuedDist::total             18920990                       # Number of insts issued each cycle (Count)
system.cpu0.statFuBusy::No_OpClass                  0      0.00%      0.00% # attempts to use FU when none available (Count)
system.cpu0.statFuBusy::IntAlu                  50374      7.80%      7.80% # attempts to use FU when none available (Count)
system.cpu0.statFuBusy::IntMult                    37      0.01%      7.81% # attempts to use FU when none available (Count)
system.cpu0.statFuBusy::IntDiv                      3      0.00%      7.81% # attempts to use FU when none available (Count)
system.cpu0.statFuBusy::FloatAdd                 1022      0.16%      7.97% # attempts to use FU when none available (Count)
system.cpu0.statFuBusy::FloatCmp                    0      0.00%      7.97% # attempts to use FU when none available (Count)
system.cpu0.statFuBusy::FloatCvt                 2053      0.32%      8.28% # attempts to use FU when none available (Count)
system.cpu0.statFuBusy::FloatMult               68867     10.67%     18.95% # attempts to use FU when none available (Count)
system.cpu0.statFuBusy::FloatMultAcc           168626     26.12%     45.07% # attempts to use FU when none available (Count)
system.cpu0.statFuBusy::FloatDiv                 5125      0.79%     45.86% # attempts to use FU when none available (Count)
system.cpu0.statFuBusy::FloatMisc               14253      2.21%     48.07% # attempts to use FU when none available (Count)
system.cpu0.statFuBusy::FloatSqrt                   0      0.00%     48.07% # attempts to use FU when none available (Count)
system.cpu0.statFuBusy::SimdAdd                     0      0.00%     48.07% # attempts to use FU when none available (Count)
system.cpu0.statFuBusy::SimdAddAcc                  0      0.00%     48.07% # attempts to use FU when none available (Count)
system.cpu0.statFuBusy::SimdAlu                     0      0.00%     48.07% # attempts to use FU when none available (Count)
system.cpu0.statFuBusy::SimdCmp                     0      0.00%     48.07% # attempts to use FU when none available (Count)
system.cpu0.statFuBusy::SimdCvt                     0      0.00%     48.07% # attempts to use FU when none available (Count)
system.cpu0.statFuBusy::SimdMisc                    0      0.00%     48.07% # attempts to use FU when none available (Count)
system.cpu0.statFuBusy::SimdMult                    0      0.00%     48.07% # attempts to use FU when none available (Count)
system.cpu0.statFuBusy::SimdMultAcc                 0      0.00%     48.07% # attempts to use FU when none available (Count)
system.cpu0.statFuBusy::SimdShift                   0      0.00%     48.07% # attempts to use FU when none available (Count)
system.cpu0.statFuBusy::SimdShiftAcc                0      0.00%     48.07% # attempts to use FU when none available (Count)
system.cpu0.statFuBusy::SimdDiv                     0      0.00%     48.07% # attempts to use FU when none available (Count)
system.cpu0.statFuBusy::SimdSqrt                    0      0.00%     48.07% # attempts to use FU when none available (Count)
system.cpu0.statFuBusy::SimdFloatAdd                0      0.00%     48.07% # attempts to use FU when none available (Count)
system.cpu0.statFuBusy::SimdFloatAlu                0      0.00%     48.07% # attempts to use FU when none available (Count)
system.cpu0.statFuBusy::SimdFloatCmp                0      0.00%     48.07% # attempts to use FU when none available (Count)
system.cpu0.statFuBusy::SimdFloatCvt                0      0.00%     48.07% # attempts to use FU when none available (Count)
system.cpu0.statFuBusy::SimdFloatDiv                0      0.00%     48.07% # attempts to use FU when none available (Count)
system.cpu0.statFuBusy::SimdFloatMisc               0      0.00%     48.07% # attempts to use FU when none available (Count)
system.cpu0.statFuBusy::SimdFloatMult               0      0.00%     48.07% # attempts to use FU when none available (Count)
system.cpu0.statFuBusy::SimdFloatMultAcc            0      0.00%     48.07% # attempts to use FU when none available (Count)
system.cpu0.statFuBusy::SimdFloatSqrt               0      0.00%     48.07% # attempts to use FU when none available (Count)
system.cpu0.statFuBusy::SimdReduceAdd               0      0.00%     48.07% # attempts to use FU when none available (Count)
system.cpu0.statFuBusy::SimdReduceAlu               0      0.00%     48.07% # attempts to use FU when none available (Count)
system.cpu0.statFuBusy::SimdReduceCmp               0      0.00%     48.07% # attempts to use FU when none available (Count)
system.cpu0.statFuBusy::SimdFloatReduceAdd            0      0.00%     48.07% # attempts to use FU when none available (Count)
system.cpu0.statFuBusy::SimdFloatReduceCmp            0      0.00%     48.07% # attempts to use FU when none available (Count)
system.cpu0.statFuBusy::SimdAes                     0      0.00%     48.07% # attempts to use FU when none available (Count)
system.cpu0.statFuBusy::SimdAesMix                  0      0.00%     48.07% # attempts to use FU when none available (Count)
system.cpu0.statFuBusy::SimdSha1Hash                0      0.00%     48.07% # attempts to use FU when none available (Count)
system.cpu0.statFuBusy::SimdSha1Hash2               0      0.00%     48.07% # attempts to use FU when none available (Count)
system.cpu0.statFuBusy::SimdSha256Hash              0      0.00%     48.07% # attempts to use FU when none available (Count)
system.cpu0.statFuBusy::SimdSha256Hash2             0      0.00%     48.07% # attempts to use FU when none available (Count)
system.cpu0.statFuBusy::SimdShaSigma2               0      0.00%     48.07% # attempts to use FU when none available (Count)
system.cpu0.statFuBusy::SimdShaSigma3               0      0.00%     48.07% # attempts to use FU when none available (Count)
system.cpu0.statFuBusy::SimdPredAlu                 0      0.00%     48.07% # attempts to use FU when none available (Count)
system.cpu0.statFuBusy::MemRead                 18721      2.90%     50.97% # attempts to use FU when none available (Count)
system.cpu0.statFuBusy::MemWrite                54071      8.37%     59.34% # attempts to use FU when none available (Count)
system.cpu0.statFuBusy::FloatMemRead           250128     38.74%     98.08% # attempts to use FU when none available (Count)
system.cpu0.statFuBusy::FloatMemWrite           12410      1.92%    100.00% # attempts to use FU when none available (Count)
system.cpu0.statFuBusy::IprAccess                   0      0.00%    100.00% # attempts to use FU when none available (Count)
system.cpu0.statFuBusy::InstPrefetch                0      0.00%    100.00% # attempts to use FU when none available (Count)
system.cpu0.statIssuedInstType_0::No_OpClass        66116      0.27%      0.27% # Number of instructions issued per FU type, per thread (Count)
system.cpu0.statIssuedInstType_0::IntAlu     11701757     47.44%     47.70% # Number of instructions issued per FU type, per thread (Count)
system.cpu0.statIssuedInstType_0::IntMult       132007      0.54%     48.24% # Number of instructions issued per FU type, per thread (Count)
system.cpu0.statIssuedInstType_0::IntDiv         1330      0.01%     48.25% # Number of instructions issued per FU type, per thread (Count)
system.cpu0.statIssuedInstType_0::FloatAdd      1550541      6.29%     54.53% # Number of instructions issued per FU type, per thread (Count)
system.cpu0.statIssuedInstType_0::FloatCmp       185481      0.75%     55.28% # Number of instructions issued per FU type, per thread (Count)
system.cpu0.statIssuedInstType_0::FloatCvt       797479      3.23%     58.52% # Number of instructions issued per FU type, per thread (Count)
system.cpu0.statIssuedInstType_0::FloatMult      1245450      5.05%     63.56% # Number of instructions issued per FU type, per thread (Count)
system.cpu0.statIssuedInstType_0::FloatMultAcc      1067141      4.33%     67.89% # Number of instructions issued per FU type, per thread (Count)
system.cpu0.statIssuedInstType_0::FloatDiv        66274      0.27%     68.16% # Number of instructions issued per FU type, per thread (Count)
system.cpu0.statIssuedInstType_0::FloatMisc       338054      1.37%     69.53% # Number of instructions issued per FU type, per thread (Count)
system.cpu0.statIssuedInstType_0::FloatSqrt            0      0.00%     69.53% # Number of instructions issued per FU type, per thread (Count)
system.cpu0.statIssuedInstType_0::SimdAdd            0      0.00%     69.53% # Number of instructions issued per FU type, per thread (Count)
system.cpu0.statIssuedInstType_0::SimdAddAcc            0      0.00%     69.53% # Number of instructions issued per FU type, per thread (Count)
system.cpu0.statIssuedInstType_0::SimdAlu            0      0.00%     69.53% # Number of instructions issued per FU type, per thread (Count)
system.cpu0.statIssuedInstType_0::SimdCmp            0      0.00%     69.53% # Number of instructions issued per FU type, per thread (Count)
system.cpu0.statIssuedInstType_0::SimdCvt            0      0.00%     69.53% # Number of instructions issued per FU type, per thread (Count)
system.cpu0.statIssuedInstType_0::SimdMisc            0      0.00%     69.53% # Number of instructions issued per FU type, per thread (Count)
system.cpu0.statIssuedInstType_0::SimdMult            0      0.00%     69.53% # Number of instructions issued per FU type, per thread (Count)
system.cpu0.statIssuedInstType_0::SimdMultAcc            0      0.00%     69.53% # Number of instructions issued per FU type, per thread (Count)
system.cpu0.statIssuedInstType_0::SimdShift            0      0.00%     69.53% # Number of instructions issued per FU type, per thread (Count)
system.cpu0.statIssuedInstType_0::SimdShiftAcc            0      0.00%     69.53% # Number of instructions issued per FU type, per thread (Count)
system.cpu0.statIssuedInstType_0::SimdDiv            0      0.00%     69.53% # Number of instructions issued per FU type, per thread (Count)
system.cpu0.statIssuedInstType_0::SimdSqrt            0      0.00%     69.53% # Number of instructions issued per FU type, per thread (Count)
system.cpu0.statIssuedInstType_0::SimdFloatAdd            0      0.00%     69.53% # Number of instructions issued per FU type, per thread (Count)
system.cpu0.statIssuedInstType_0::SimdFloatAlu            0      0.00%     69.53% # Number of instructions issued per FU type, per thread (Count)
system.cpu0.statIssuedInstType_0::SimdFloatCmp            0      0.00%     69.53% # Number of instructions issued per FU type, per thread (Count)
system.cpu0.statIssuedInstType_0::SimdFloatCvt            0      0.00%     69.53% # Number of instructions issued per FU type, per thread (Count)
system.cpu0.statIssuedInstType_0::SimdFloatDiv            0      0.00%     69.53% # Number of instructions issued per FU type, per thread (Count)
system.cpu0.statIssuedInstType_0::SimdFloatMisc            0      0.00%     69.53% # Number of instructions issued per FU type, per thread (Count)
system.cpu0.statIssuedInstType_0::SimdFloatMult            0      0.00%     69.53% # Number of instructions issued per FU type, per thread (Count)
system.cpu0.statIssuedInstType_0::SimdFloatMultAcc            0      0.00%     69.53% # Number of instructions issued per FU type, per thread (Count)
system.cpu0.statIssuedInstType_0::SimdFloatSqrt            0      0.00%     69.53% # Number of instructions issued per FU type, per thread (Count)
system.cpu0.statIssuedInstType_0::SimdReduceAdd            0      0.00%     69.53% # Number of instructions issued per FU type, per thread (Count)
system.cpu0.statIssuedInstType_0::SimdReduceAlu            0      0.00%     69.53% # Number of instructions issued per FU type, per thread (Count)
system.cpu0.statIssuedInstType_0::SimdReduceCmp            0      0.00%     69.53% # Number of instructions issued per FU type, per thread (Count)
system.cpu0.statIssuedInstType_0::SimdFloatReduceAdd            0      0.00%     69.53% # Number of instructions issued per FU type, per thread (Count)
system.cpu0.statIssuedInstType_0::SimdFloatReduceCmp            0      0.00%     69.53% # Number of instructions issued per FU type, per thread (Count)
system.cpu0.statIssuedInstType_0::SimdAes            0      0.00%     69.53% # Number of instructions issued per FU type, per thread (Count)
system.cpu0.statIssuedInstType_0::SimdAesMix            0      0.00%     69.53% # Number of instructions issued per FU type, per thread (Count)
system.cpu0.statIssuedInstType_0::SimdSha1Hash            0      0.00%     69.53% # Number of instructions issued per FU type, per thread (Count)
system.cpu0.statIssuedInstType_0::SimdSha1Hash2            0      0.00%     69.53% # Number of instructions issued per FU type, per thread (Count)
system.cpu0.statIssuedInstType_0::SimdSha256Hash            0      0.00%     69.53% # Number of instructions issued per FU type, per thread (Count)
system.cpu0.statIssuedInstType_0::SimdSha256Hash2            0      0.00%     69.53% # Number of instructions issued per FU type, per thread (Count)
system.cpu0.statIssuedInstType_0::SimdShaSigma2            0      0.00%     69.53% # Number of instructions issued per FU type, per thread (Count)
system.cpu0.statIssuedInstType_0::SimdShaSigma3            0      0.00%     69.53% # Number of instructions issued per FU type, per thread (Count)
system.cpu0.statIssuedInstType_0::SimdPredAlu            0      0.00%     69.53% # Number of instructions issued per FU type, per thread (Count)
system.cpu0.statIssuedInstType_0::MemRead      2121100      8.60%     78.13% # Number of instructions issued per FU type, per thread (Count)
system.cpu0.statIssuedInstType_0::MemWrite      1262164      5.12%     83.24% # Number of instructions issued per FU type, per thread (Count)
system.cpu0.statIssuedInstType_0::FloatMemRead      2871835     11.64%     94.89% # Number of instructions issued per FU type, per thread (Count)
system.cpu0.statIssuedInstType_0::FloatMemWrite      1261413      5.11%    100.00% # Number of instructions issued per FU type, per thread (Count)
system.cpu0.statIssuedInstType_0::IprAccess            0      0.00%    100.00% # Number of instructions issued per FU type, per thread (Count)
system.cpu0.statIssuedInstType_0::InstPrefetch            0      0.00%    100.00% # Number of instructions issued per FU type, per thread (Count)
system.cpu0.statIssuedInstType_0::total      24668142                       # Number of instructions issued per FU type, per thread (Count)
system.cpu0.issueRate                        1.297700                       # Inst issue rate ((Count/Cycle))
system.cpu0.fuBusy                             645690                       # FU busy when requested (Count)
system.cpu0.fuBusyRate                       0.026175                       # FU busy rate (busy events/executed inst) ((Count/Count))
system.cpu0.intInstQueueReads                49613609                       # Number of integer instruction queue reads (Count)
system.cpu0.intInstQueueWrites               15426744                       # Number of integer instruction queue writes (Count)
system.cpu0.intInstQueueWakeupAccesses       15263632                       # Number of integer instruction queue wakeup accesses (Count)
system.cpu0.fpInstQueueReads                 19293933                       # Number of floating instruction queue reads (Count)
system.cpu0.fpInstQueueWrites                 9358711                       # Number of floating instruction queue writes (Count)
system.cpu0.fpInstQueueWakeupAccesses         9125830                       # Number of floating instruction queue wakeup accesses (Count)
system.cpu0.vecInstQueueReads                       0                       # Number of vector instruction queue reads (Count)
system.cpu0.vecInstQueueWrites                      0                       # Number of vector instruction queue writes (Count)
system.cpu0.vecInstQueueWakeupAccesses              0                       # Number of vector instruction queue wakeup accesses (Count)
system.cpu0.intAluAccesses                   15341564                       # Number of integer alu accesses (Count)
system.cpu0.fpAluAccesses                     9906152                       # Number of floating point alu accesses (Count)
system.cpu0.vecAluAccesses                          0                       # Number of vector alu accesses (Count)
system.cpu0.numInsts                         24634683                       # Number of executed instructions (Count)
system.cpu0.numLoadInsts                      4977785                       # Number of load instructions executed (Count)
system.cpu0.numSquashedInsts                    33459                       # Number of squashed instructions skipped in execute (Count)
system.cpu0.numSwp                                  0                       # Number of swp insts executed (Count)
system.cpu0.numNop                                  0                       # Number of nop insts executed (Count)
system.cpu0.numRefs                           7500303                       # Number of memory reference insts executed (Count)
system.cpu0.numBranches                       2628668                       # Number of branches executed (Count)
system.cpu0.numStoreInsts                     2522518                       # Number of stores executed (Count)
system.cpu0.numRate                          1.295939                       # Inst execution rate ((Count/Cycle))
system.cpu0.timesIdled                            594                       # Number of times that the entire CPU went into an idle state and unscheduled itself (Count)
system.cpu0.idleCycles                          88142                       # Total number of cycles that the CPU has spent unscheduled due to idling (Cycle)
system.cpu0.quiesceCycles                      141910                       # Total number of cycles that CPU has spent quiesced or waiting for an interrupt (Cycle)
system.cpu0.committedInsts                   24279915                       # Number of Instructions Simulated (Count)
system.cpu0.committedOps                     24280050                       # Number of Ops (including micro ops) Simulated (Count)
system.cpu0.cpi                              0.782916                       # CPI: Cycles Per Instruction ((Cycle/Count))
system.cpu0.totalCpi                         0.782916                       # CPI: Total CPI of All Threads ((Cycle/Count))
system.cpu0.ipc                              1.277276                       # IPC: Instructions Per Cycle ((Count/Cycle))
system.cpu0.totalIpc                         1.277276                       # IPC: Total IPC of All Threads ((Count/Cycle))
system.cpu0.intRegfileReads                  22253452                       # Number of integer regfile reads (Count)
system.cpu0.intRegfileWrites                 12170406                       # Number of integer regfile writes (Count)
system.cpu0.fpRegfileReads                   11378062                       # Number of floating regfile reads (Count)
system.cpu0.fpRegfileWrites                   7536109                       # Number of floating regfile writes (Count)
system.cpu0.miscRegfileReads                 18259049                       # number of misc regfile reads (Count)
system.cpu0.miscRegfileWrites                 5236838                       # number of misc regfile writes (Count)
system.cpu0.MemDepUnit__0.insertedLoads       4773045                       # Number of loads inserted to the mem dependence unit. (Count)
system.cpu0.MemDepUnit__0.insertedStores      2541527                       # Number of stores inserted to the mem dependence unit. (Count)
system.cpu0.MemDepUnit__0.conflictingLoads       825813                       # Number of conflicting loads. (Count)
system.cpu0.MemDepUnit__0.conflictingStores       365407                       # Number of conflicting stores. (Count)
system.cpu0.MemDepUnit__1.insertedLoads             0                       # Number of loads inserted to the mem dependence unit. (Count)
system.cpu0.MemDepUnit__1.insertedStores            0                       # Number of stores inserted to the mem dependence unit. (Count)
system.cpu0.MemDepUnit__1.conflictingLoads            0                       # Number of conflicting loads. (Count)
system.cpu0.MemDepUnit__1.conflictingStores            0                       # Number of conflicting stores. (Count)
system.cpu0.MemDepUnit__2.insertedLoads             0                       # Number of loads inserted to the mem dependence unit. (Count)
system.cpu0.MemDepUnit__2.insertedStores            0                       # Number of stores inserted to the mem dependence unit. (Count)
system.cpu0.MemDepUnit__2.conflictingLoads            0                       # Number of conflicting loads. (Count)
system.cpu0.MemDepUnit__2.conflictingStores            0                       # Number of conflicting stores. (Count)
system.cpu0.MemDepUnit__3.insertedLoads             0                       # Number of loads inserted to the mem dependence unit. (Count)
system.cpu0.MemDepUnit__3.insertedStores            0                       # Number of stores inserted to the mem dependence unit. (Count)
system.cpu0.MemDepUnit__3.conflictingLoads            0                       # Number of conflicting loads. (Count)
system.cpu0.MemDepUnit__3.conflictingStores            0                       # Number of conflicting stores. (Count)
system.cpu0.branchPred.lookups                2673337                       # Number of BP lookups (Count)
system.cpu0.branchPred.condPredicted          1666963                       # Number of conditional branches predicted (Count)
system.cpu0.branchPred.condIncorrect            13607                       # Number of conditional branches incorrect (Count)
system.cpu0.branchPred.BTBLookups             1423237                       # Number of BTB lookups (Count)
system.cpu0.branchPred.BTBHits                1421058                       # Number of BTB hits (Count)
system.cpu0.branchPred.BTBHitRatio           0.998469                       # BTB Hit Ratio (Ratio)
system.cpu0.branchPred.RASUsed                 463170                       # Number of times the RAS was used to get a target. (Count)
system.cpu0.branchPred.RASIncorrect                11                       # Number of incorrect RAS predictions. (Count)
system.cpu0.branchPred.indirectLookups            474                       # Number of indirect predictor lookups. (Count)
system.cpu0.branchPred.indirectHits               123                       # Number of indirect target hits. (Count)
system.cpu0.branchPred.indirectMisses             351                       # Number of indirect misses. (Count)
system.cpu0.branchPred.indirectMispredicted          136                       # Number of mispredicted indirect branches. (Count)
system.cpu0.commit.commitSquashedInsts         242357                       # The number of squashed insts skipped by commit (Count)
system.cpu0.commit.commitNonSpecStalls          66350                       # The number of times commit has been forced to stall to communicate backwards (Count)
system.cpu0.commit.branchMispredicts            13091                       # The number of times a branch was mispredicted (Count)
system.cpu0.commit.numCommittedDist::samples     18885007                       # Number of insts commited each cycle (Count)
system.cpu0.commit.numCommittedDist::mean     1.285679                       # Number of insts commited each cycle (Count)
system.cpu0.commit.numCommittedDist::stdev     2.370753                       # Number of insts commited each cycle (Count)
system.cpu0.commit.numCommittedDist::underflows            0      0.00%      0.00% # Number of insts commited each cycle (Count)
system.cpu0.commit.numCommittedDist::0       12520021     66.30%     66.30% # Number of insts commited each cycle (Count)
system.cpu0.commit.numCommittedDist::1        1403195      7.43%     73.73% # Number of insts commited each cycle (Count)
system.cpu0.commit.numCommittedDist::2        1332551      7.06%     80.78% # Number of insts commited each cycle (Count)
system.cpu0.commit.numCommittedDist::3        1187508      6.29%     87.07% # Number of insts commited each cycle (Count)
system.cpu0.commit.numCommittedDist::4         435934      2.31%     89.38% # Number of insts commited each cycle (Count)
system.cpu0.commit.numCommittedDist::5         209023      1.11%     90.49% # Number of insts commited each cycle (Count)
system.cpu0.commit.numCommittedDist::6         225603      1.19%     91.68% # Number of insts commited each cycle (Count)
system.cpu0.commit.numCommittedDist::7          62616      0.33%     92.01% # Number of insts commited each cycle (Count)
system.cpu0.commit.numCommittedDist::8        1508556      7.99%    100.00% # Number of insts commited each cycle (Count)
system.cpu0.commit.numCommittedDist::overflows            0      0.00%    100.00% # Number of insts commited each cycle (Count)
system.cpu0.commit.numCommittedDist::min_value            0                       # Number of insts commited each cycle (Count)
system.cpu0.commit.numCommittedDist::max_value            8                       # Number of insts commited each cycle (Count)
system.cpu0.commit.numCommittedDist::total     18885007                       # Number of insts commited each cycle (Count)
system.cpu0.commit.instsCommitted            24279915                       # Number of instructions committed (Count)
system.cpu0.commit.opsCommitted              24280050                       # Number of ops (including micro ops) committed (Count)
system.cpu0.commit.memRefs                    7221779                       # Number of memory references committed (Count)
system.cpu0.commit.loads                      4709199                       # Number of loads committed (Count)
system.cpu0.commit.amos                           141                       # Number of atomic instructions committed (Count)
system.cpu0.commit.membars                        269                       # Number of memory barriers committed (Count)
system.cpu0.commit.branches                   2613693                       # Number of branches committed (Count)
system.cpu0.commit.vectorInstructions               0                       # Number of committed Vector instructions. (Count)
system.cpu0.commit.floating                   9097405                       # Number of committed floating point instructions. (Count)
system.cpu0.commit.integer                   19943543                       # Number of committed integer instructions. (Count)
system.cpu0.commit.functionCalls               459947                       # Number of function calls committed. (Count)
system.cpu0.commit.committedInstType_0::No_OpClass        66061      0.27%      0.27% # Class of committed instruction (Count)
system.cpu0.commit.committedInstType_0::IntAlu     11622473     47.87%     48.14% # Class of committed instruction (Count)
system.cpu0.commit.committedInstType_0::IntMult       131718      0.54%     48.68% # Class of committed instruction (Count)
system.cpu0.commit.committedInstType_0::IntDiv         1181      0.00%     48.69% # Class of committed instruction (Count)
system.cpu0.commit.committedInstType_0::FloatAdd      1549869      6.38%     55.07% # Class of committed instruction (Count)
system.cpu0.commit.committedInstType_0::FloatCmp       183887      0.76%     55.83% # Class of committed instruction (Count)
system.cpu0.commit.committedInstType_0::FloatCvt       791386      3.26%     59.09% # Class of committed instruction (Count)
system.cpu0.commit.committedInstType_0::FloatMult      1242105      5.12%     64.20% # Class of committed instruction (Count)
system.cpu0.commit.committedInstType_0::FloatMultAcc      1066472      4.39%     68.60% # Class of committed instruction (Count)
system.cpu0.commit.committedInstType_0::FloatDiv        65794      0.27%     68.87% # Class of committed instruction (Count)
system.cpu0.commit.committedInstType_0::FloatMisc       337325      1.39%     70.26% # Class of committed instruction (Count)
system.cpu0.commit.committedInstType_0::FloatSqrt            0      0.00%     70.26% # Class of committed instruction (Count)
system.cpu0.commit.committedInstType_0::SimdAdd            0      0.00%     70.26% # Class of committed instruction (Count)
system.cpu0.commit.committedInstType_0::SimdAddAcc            0      0.00%     70.26% # Class of committed instruction (Count)
system.cpu0.commit.committedInstType_0::SimdAlu            0      0.00%     70.26% # Class of committed instruction (Count)
system.cpu0.commit.committedInstType_0::SimdCmp            0      0.00%     70.26% # Class of committed instruction (Count)
system.cpu0.commit.committedInstType_0::SimdCvt            0      0.00%     70.26% # Class of committed instruction (Count)
system.cpu0.commit.committedInstType_0::SimdMisc            0      0.00%     70.26% # Class of committed instruction (Count)
system.cpu0.commit.committedInstType_0::SimdMult            0      0.00%     70.26% # Class of committed instruction (Count)
system.cpu0.commit.committedInstType_0::SimdMultAcc            0      0.00%     70.26% # Class of committed instruction (Count)
system.cpu0.commit.committedInstType_0::SimdShift            0      0.00%     70.26% # Class of committed instruction (Count)
system.cpu0.commit.committedInstType_0::SimdShiftAcc            0      0.00%     70.26% # Class of committed instruction (Count)
system.cpu0.commit.committedInstType_0::SimdDiv            0      0.00%     70.26% # Class of committed instruction (Count)
system.cpu0.commit.committedInstType_0::SimdSqrt            0      0.00%     70.26% # Class of committed instruction (Count)
system.cpu0.commit.committedInstType_0::SimdFloatAdd            0      0.00%     70.26% # Class of committed instruction (Count)
system.cpu0.commit.committedInstType_0::SimdFloatAlu            0      0.00%     70.26% # Class of committed instruction (Count)
system.cpu0.commit.committedInstType_0::SimdFloatCmp            0      0.00%     70.26% # Class of committed instruction (Count)
system.cpu0.commit.committedInstType_0::SimdFloatCvt            0      0.00%     70.26% # Class of committed instruction (Count)
system.cpu0.commit.committedInstType_0::SimdFloatDiv            0      0.00%     70.26% # Class of committed instruction (Count)
system.cpu0.commit.committedInstType_0::SimdFloatMisc            0      0.00%     70.26% # Class of committed instruction (Count)
system.cpu0.commit.committedInstType_0::SimdFloatMult            0      0.00%     70.26% # Class of committed instruction (Count)
system.cpu0.commit.committedInstType_0::SimdFloatMultAcc            0      0.00%     70.26% # Class of committed instruction (Count)
system.cpu0.commit.committedInstType_0::SimdFloatSqrt            0      0.00%     70.26% # Class of committed instruction (Count)
system.cpu0.commit.committedInstType_0::SimdReduceAdd            0      0.00%     70.26% # Class of committed instruction (Count)
system.cpu0.commit.committedInstType_0::SimdReduceAlu            0      0.00%     70.26% # Class of committed instruction (Count)
system.cpu0.commit.committedInstType_0::SimdReduceCmp            0      0.00%     70.26% # Class of committed instruction (Count)
system.cpu0.commit.committedInstType_0::SimdFloatReduceAdd            0      0.00%     70.26% # Class of committed instruction (Count)
system.cpu0.commit.committedInstType_0::SimdFloatReduceCmp            0      0.00%     70.26% # Class of committed instruction (Count)
system.cpu0.commit.committedInstType_0::SimdAes            0      0.00%     70.26% # Class of committed instruction (Count)
system.cpu0.commit.committedInstType_0::SimdAesMix            0      0.00%     70.26% # Class of committed instruction (Count)
system.cpu0.commit.committedInstType_0::SimdSha1Hash            0      0.00%     70.26% # Class of committed instruction (Count)
system.cpu0.commit.committedInstType_0::SimdSha1Hash2            0      0.00%     70.26% # Class of committed instruction (Count)
system.cpu0.commit.committedInstType_0::SimdSha256Hash            0      0.00%     70.26% # Class of committed instruction (Count)
system.cpu0.commit.committedInstType_0::SimdSha256Hash2            0      0.00%     70.26% # Class of committed instruction (Count)
system.cpu0.commit.committedInstType_0::SimdShaSigma2            0      0.00%     70.26% # Class of committed instruction (Count)
system.cpu0.commit.committedInstType_0::SimdShaSigma3            0      0.00%     70.26% # Class of committed instruction (Count)
system.cpu0.commit.committedInstType_0::SimdPredAlu            0      0.00%     70.26% # Class of committed instruction (Count)
system.cpu0.commit.committedInstType_0::MemRead      2107455      8.68%     78.94% # Class of committed instruction (Count)
system.cpu0.commit.committedInstType_0::MemWrite      1253757      5.16%     84.10% # Class of committed instruction (Count)
system.cpu0.commit.committedInstType_0::FloatMemRead      2601885     10.72%     94.82% # Class of committed instruction (Count)
system.cpu0.commit.committedInstType_0::FloatMemWrite      1258682      5.18%    100.00% # Class of committed instruction (Count)
system.cpu0.commit.committedInstType_0::IprAccess            0      0.00%    100.00% # Class of committed instruction (Count)
system.cpu0.commit.committedInstType_0::InstPrefetch            0      0.00%    100.00% # Class of committed instruction (Count)
system.cpu0.commit.committedInstType_0::total     24280050                       # Class of committed instruction (Count)
system.cpu0.commit.commitEligibleSamples      1508556                       # number cycles where commit BW limit reached (Cycle)
system.cpu0.dcache.demandHits::cpu0.data      6008272                       # number of demand (read+write) hits (Count)
system.cpu0.dcache.demandHits::total          6008272                       # number of demand (read+write) hits (Count)
system.cpu0.dcache.overallHits::cpu0.data      6008272                       # number of overall hits (Count)
system.cpu0.dcache.overallHits::total         6008272                       # number of overall hits (Count)
system.cpu0.dcache.demandMisses::cpu0.data       256498                       # number of demand (read+write) misses (Count)
system.cpu0.dcache.demandMisses::total         256498                       # number of demand (read+write) misses (Count)
system.cpu0.dcache.overallMisses::cpu0.data       256498                       # number of overall misses (Count)
system.cpu0.dcache.overallMisses::total        256498                       # number of overall misses (Count)
system.cpu0.dcache.demandMissLatency::cpu0.data  10550944717                       # number of demand (read+write) miss ticks (Tick)
system.cpu0.dcache.demandMissLatency::total  10550944717                       # number of demand (read+write) miss ticks (Tick)
system.cpu0.dcache.overallMissLatency::cpu0.data  10550944717                       # number of overall miss ticks (Tick)
system.cpu0.dcache.overallMissLatency::total  10550944717                       # number of overall miss ticks (Tick)
system.cpu0.dcache.demandAccesses::cpu0.data      6264770                       # number of demand (read+write) accesses (Count)
system.cpu0.dcache.demandAccesses::total      6264770                       # number of demand (read+write) accesses (Count)
system.cpu0.dcache.overallAccesses::cpu0.data      6264770                       # number of overall (read+write) accesses (Count)
system.cpu0.dcache.overallAccesses::total      6264770                       # number of overall (read+write) accesses (Count)
system.cpu0.dcache.demandMissRate::cpu0.data     0.040943                       # miss rate for demand accesses (Ratio)
system.cpu0.dcache.demandMissRate::total     0.040943                       # miss rate for demand accesses (Ratio)
system.cpu0.dcache.overallMissRate::cpu0.data     0.040943                       # miss rate for overall accesses (Ratio)
system.cpu0.dcache.overallMissRate::total     0.040943                       # miss rate for overall accesses (Ratio)
system.cpu0.dcache.demandAvgMissLatency::cpu0.data 41134.608133                       # average overall miss latency in ticks ((Tick/Count))
system.cpu0.dcache.demandAvgMissLatency::total 41134.608133                       # average overall miss latency in ticks ((Tick/Count))
system.cpu0.dcache.overallAvgMissLatency::cpu0.data 41134.608133                       # average overall miss latency ((Tick/Count))
system.cpu0.dcache.overallAvgMissLatency::total 41134.608133                       # average overall miss latency ((Tick/Count))
system.cpu0.dcache.blockedCycles::no_mshrs       614365                       # number of cycles access was blocked (Cycle)
system.cpu0.dcache.blockedCycles::no_targets          281                       # number of cycles access was blocked (Cycle)
system.cpu0.dcache.blockedCauses::no_mshrs        19861                       # number of times access was blocked (Count)
system.cpu0.dcache.blockedCauses::no_targets            3                       # number of times access was blocked (Count)
system.cpu0.dcache.avgBlocked::no_mshrs     30.933236                       # average number of cycles each access was blocked ((Cycle/Count))
system.cpu0.dcache.avgBlocked::no_targets    93.666667                       # average number of cycles each access was blocked ((Cycle/Count))
system.cpu0.dcache.writebacks::writebacks        62587                       # number of writebacks (Count)
system.cpu0.dcache.writebacks::total            62587                       # number of writebacks (Count)
system.cpu0.dcache.demandMshrHits::cpu0.data       185251                       # number of demand (read+write) MSHR hits (Count)
system.cpu0.dcache.demandMshrHits::total       185251                       # number of demand (read+write) MSHR hits (Count)
system.cpu0.dcache.overallMshrHits::cpu0.data       185251                       # number of overall MSHR hits (Count)
system.cpu0.dcache.overallMshrHits::total       185251                       # number of overall MSHR hits (Count)
system.cpu0.dcache.demandMshrMisses::cpu0.data        71247                       # number of demand (read+write) MSHR misses (Count)
system.cpu0.dcache.demandMshrMisses::total        71247                       # number of demand (read+write) MSHR misses (Count)
system.cpu0.dcache.overallMshrMisses::cpu0.data        71247                       # number of overall MSHR misses (Count)
system.cpu0.dcache.overallMshrMisses::total        71247                       # number of overall MSHR misses (Count)
system.cpu0.dcache.demandMshrMissLatency::cpu0.data   3799875200                       # number of demand (read+write) MSHR miss ticks (Tick)
system.cpu0.dcache.demandMshrMissLatency::total   3799875200                       # number of demand (read+write) MSHR miss ticks (Tick)
system.cpu0.dcache.overallMshrMissLatency::cpu0.data   3799875200                       # number of overall MSHR miss ticks (Tick)
system.cpu0.dcache.overallMshrMissLatency::total   3799875200                       # number of overall MSHR miss ticks (Tick)
system.cpu0.dcache.demandMshrMissRate::cpu0.data     0.011373                       # mshr miss ratio for demand accesses (Ratio)
system.cpu0.dcache.demandMshrMissRate::total     0.011373                       # mshr miss ratio for demand accesses (Ratio)
system.cpu0.dcache.overallMshrMissRate::cpu0.data     0.011373                       # mshr miss ratio for overall accesses (Ratio)
system.cpu0.dcache.overallMshrMissRate::total     0.011373                       # mshr miss ratio for overall accesses (Ratio)
system.cpu0.dcache.demandAvgMshrMissLatency::cpu0.data 53333.827389                       # average overall mshr miss latency ((Tick/Count))
system.cpu0.dcache.demandAvgMshrMissLatency::total 53333.827389                       # average overall mshr miss latency ((Tick/Count))
system.cpu0.dcache.overallAvgMshrMissLatency::cpu0.data 53333.827389                       # average overall mshr miss latency ((Tick/Count))
system.cpu0.dcache.overallAvgMshrMissLatency::total 53333.827389                       # average overall mshr miss latency ((Tick/Count))
system.cpu0.dcache.replacements                 70639                       # number of replacements (Count)
system.cpu0.dcache.LoadLockedReq.hits::cpu0.data           72                       # number of LoadLockedReq hits (Count)
system.cpu0.dcache.LoadLockedReq.hits::total           72                       # number of LoadLockedReq hits (Count)
system.cpu0.dcache.LoadLockedReq.misses::cpu0.data           47                       # number of LoadLockedReq misses (Count)
system.cpu0.dcache.LoadLockedReq.misses::total           47                       # number of LoadLockedReq misses (Count)
system.cpu0.dcache.LoadLockedReq.missLatency::cpu0.data      1227438                       # number of LoadLockedReq miss ticks (Tick)
system.cpu0.dcache.LoadLockedReq.missLatency::total      1227438                       # number of LoadLockedReq miss ticks (Tick)
system.cpu0.dcache.LoadLockedReq.accesses::cpu0.data          119                       # number of LoadLockedReq accesses(hits+misses) (Count)
system.cpu0.dcache.LoadLockedReq.accesses::total          119                       # number of LoadLockedReq accesses(hits+misses) (Count)
system.cpu0.dcache.LoadLockedReq.missRate::cpu0.data     0.394958                       # miss rate for LoadLockedReq accesses (Ratio)
system.cpu0.dcache.LoadLockedReq.missRate::total     0.394958                       # miss rate for LoadLockedReq accesses (Ratio)
system.cpu0.dcache.LoadLockedReq.avgMissLatency::cpu0.data 26115.702128                       # average LoadLockedReq miss latency ((Tick/Count))
system.cpu0.dcache.LoadLockedReq.avgMissLatency::total 26115.702128                       # average LoadLockedReq miss latency ((Tick/Count))
system.cpu0.dcache.LoadLockedReq.mshrHits::cpu0.data           18                       # number of LoadLockedReq MSHR hits (Count)
system.cpu0.dcache.LoadLockedReq.mshrHits::total           18                       # number of LoadLockedReq MSHR hits (Count)
system.cpu0.dcache.LoadLockedReq.mshrMisses::cpu0.data           29                       # number of LoadLockedReq MSHR misses (Count)
system.cpu0.dcache.LoadLockedReq.mshrMisses::total           29                       # number of LoadLockedReq MSHR misses (Count)
system.cpu0.dcache.LoadLockedReq.mshrMissLatency::cpu0.data       879453                       # number of LoadLockedReq MSHR miss ticks (Tick)
system.cpu0.dcache.LoadLockedReq.mshrMissLatency::total       879453                       # number of LoadLockedReq MSHR miss ticks (Tick)
system.cpu0.dcache.LoadLockedReq.mshrMissRate::cpu0.data     0.243697                       # mshr miss rate for LoadLockedReq accesses (Ratio)
system.cpu0.dcache.LoadLockedReq.mshrMissRate::total     0.243697                       # mshr miss rate for LoadLockedReq accesses (Ratio)
system.cpu0.dcache.LoadLockedReq.avgMshrMissLatency::cpu0.data 30325.965517                       # average LoadLockedReq mshr miss latency ((Tick/Count))
system.cpu0.dcache.LoadLockedReq.avgMshrMissLatency::total 30325.965517                       # average LoadLockedReq mshr miss latency ((Tick/Count))
system.cpu0.dcache.ReadReq.hits::cpu0.data      3620591                       # number of ReadReq hits (Count)
system.cpu0.dcache.ReadReq.hits::total        3620591                       # number of ReadReq hits (Count)
system.cpu0.dcache.ReadReq.misses::cpu0.data       131834                       # number of ReadReq misses (Count)
system.cpu0.dcache.ReadReq.misses::total       131834                       # number of ReadReq misses (Count)
system.cpu0.dcache.ReadReq.missLatency::cpu0.data   1584369045                       # number of ReadReq miss ticks (Tick)
system.cpu0.dcache.ReadReq.missLatency::total   1584369045                       # number of ReadReq miss ticks (Tick)
system.cpu0.dcache.ReadReq.accesses::cpu0.data      3752425                       # number of ReadReq accesses(hits+misses) (Count)
system.cpu0.dcache.ReadReq.accesses::total      3752425                       # number of ReadReq accesses(hits+misses) (Count)
system.cpu0.dcache.ReadReq.missRate::cpu0.data     0.035133                       # miss rate for ReadReq accesses (Ratio)
system.cpu0.dcache.ReadReq.missRate::total     0.035133                       # miss rate for ReadReq accesses (Ratio)
system.cpu0.dcache.ReadReq.avgMissLatency::cpu0.data 12017.909227                       # average ReadReq miss latency ((Tick/Count))
system.cpu0.dcache.ReadReq.avgMissLatency::total 12017.909227                       # average ReadReq miss latency ((Tick/Count))
system.cpu0.dcache.ReadReq.mshrHits::cpu0.data       106092                       # number of ReadReq MSHR hits (Count)
system.cpu0.dcache.ReadReq.mshrHits::total       106092                       # number of ReadReq MSHR hits (Count)
system.cpu0.dcache.ReadReq.mshrMisses::cpu0.data        25742                       # number of ReadReq MSHR misses (Count)
system.cpu0.dcache.ReadReq.mshrMisses::total        25742                       # number of ReadReq MSHR misses (Count)
system.cpu0.dcache.ReadReq.mshrMissLatency::cpu0.data    332575425                       # number of ReadReq MSHR miss ticks (Tick)
system.cpu0.dcache.ReadReq.mshrMissLatency::total    332575425                       # number of ReadReq MSHR miss ticks (Tick)
system.cpu0.dcache.ReadReq.mshrMissRate::cpu0.data     0.006860                       # mshr miss rate for ReadReq accesses (Ratio)
system.cpu0.dcache.ReadReq.mshrMissRate::total     0.006860                       # mshr miss rate for ReadReq accesses (Ratio)
system.cpu0.dcache.ReadReq.avgMshrMissLatency::cpu0.data 12919.564331                       # average ReadReq mshr miss latency ((Tick/Count))
system.cpu0.dcache.ReadReq.avgMshrMissLatency::total 12919.564331                       # average ReadReq mshr miss latency ((Tick/Count))
system.cpu0.dcache.StoreCondFailReq.missLatency::cpu0.data       109224                       # number of StoreCondFailReq miss ticks (Tick)
system.cpu0.dcache.StoreCondFailReq.missLatency::total       109224                       # number of StoreCondFailReq miss ticks (Tick)
system.cpu0.dcache.StoreCondFailReq.avgMissLatency::cpu0.data          inf                       # average StoreCondFailReq miss latency ((Tick/Count))
system.cpu0.dcache.StoreCondFailReq.avgMissLatency::total          inf                       # average StoreCondFailReq miss latency ((Tick/Count))
system.cpu0.dcache.StoreCondFailReq.mshrMissLatency::cpu0.data       107226                       # number of StoreCondFailReq MSHR miss ticks (Tick)
system.cpu0.dcache.StoreCondFailReq.mshrMissLatency::total       107226                       # number of StoreCondFailReq MSHR miss ticks (Tick)
system.cpu0.dcache.StoreCondFailReq.avgMshrMissLatency::cpu0.data          inf                       # average StoreCondFailReq mshr miss latency ((Tick/Count))
system.cpu0.dcache.StoreCondFailReq.avgMshrMissLatency::total          inf                       # average StoreCondFailReq mshr miss latency ((Tick/Count))
system.cpu0.dcache.StoreCondReq.hits::cpu0.data           63                       # number of StoreCondReq hits (Count)
system.cpu0.dcache.StoreCondReq.hits::total           63                       # number of StoreCondReq hits (Count)
system.cpu0.dcache.StoreCondReq.misses::cpu0.data           25                       # number of StoreCondReq misses (Count)
system.cpu0.dcache.StoreCondReq.misses::total           25                       # number of StoreCondReq misses (Count)
system.cpu0.dcache.StoreCondReq.missLatency::cpu0.data       441225                       # number of StoreCondReq miss ticks (Tick)
system.cpu0.dcache.StoreCondReq.missLatency::total       441225                       # number of StoreCondReq miss ticks (Tick)
system.cpu0.dcache.StoreCondReq.accesses::cpu0.data           88                       # number of StoreCondReq accesses(hits+misses) (Count)
system.cpu0.dcache.StoreCondReq.accesses::total           88                       # number of StoreCondReq accesses(hits+misses) (Count)
system.cpu0.dcache.StoreCondReq.missRate::cpu0.data     0.284091                       # miss rate for StoreCondReq accesses (Ratio)
system.cpu0.dcache.StoreCondReq.missRate::total     0.284091                       # miss rate for StoreCondReq accesses (Ratio)
system.cpu0.dcache.StoreCondReq.avgMissLatency::cpu0.data        17649                       # average StoreCondReq miss latency ((Tick/Count))
system.cpu0.dcache.StoreCondReq.avgMissLatency::total        17649                       # average StoreCondReq miss latency ((Tick/Count))
system.cpu0.dcache.StoreCondReq.mshrMisses::cpu0.data           25                       # number of StoreCondReq MSHR misses (Count)
system.cpu0.dcache.StoreCondReq.mshrMisses::total           25                       # number of StoreCondReq MSHR misses (Count)
system.cpu0.dcache.StoreCondReq.mshrMissLatency::cpu0.data       426573                       # number of StoreCondReq MSHR miss ticks (Tick)
system.cpu0.dcache.StoreCondReq.mshrMissLatency::total       426573                       # number of StoreCondReq MSHR miss ticks (Tick)
system.cpu0.dcache.StoreCondReq.mshrMissRate::cpu0.data     0.284091                       # mshr miss rate for StoreCondReq accesses (Ratio)
system.cpu0.dcache.StoreCondReq.mshrMissRate::total     0.284091                       # mshr miss rate for StoreCondReq accesses (Ratio)
system.cpu0.dcache.StoreCondReq.avgMshrMissLatency::cpu0.data 17062.920000                       # average StoreCondReq mshr miss latency ((Tick/Count))
system.cpu0.dcache.StoreCondReq.avgMshrMissLatency::total 17062.920000                       # average StoreCondReq mshr miss latency ((Tick/Count))
system.cpu0.dcache.SwapReq.hits::cpu0.data          114                       # number of SwapReq hits (Count)
system.cpu0.dcache.SwapReq.hits::total            114                       # number of SwapReq hits (Count)
system.cpu0.dcache.SwapReq.misses::cpu0.data           27                       # number of SwapReq misses (Count)
system.cpu0.dcache.SwapReq.misses::total           27                       # number of SwapReq misses (Count)
system.cpu0.dcache.SwapReq.missLatency::cpu0.data       942723                       # number of SwapReq miss ticks (Tick)
system.cpu0.dcache.SwapReq.missLatency::total       942723                       # number of SwapReq miss ticks (Tick)
system.cpu0.dcache.SwapReq.accesses::cpu0.data          141                       # number of SwapReq accesses(hits+misses) (Count)
system.cpu0.dcache.SwapReq.accesses::total          141                       # number of SwapReq accesses(hits+misses) (Count)
system.cpu0.dcache.SwapReq.missRate::cpu0.data     0.191489                       # miss rate for SwapReq accesses (Ratio)
system.cpu0.dcache.SwapReq.missRate::total     0.191489                       # miss rate for SwapReq accesses (Ratio)
system.cpu0.dcache.SwapReq.avgMissLatency::cpu0.data 34915.666667                       # average SwapReq miss latency ((Tick/Count))
system.cpu0.dcache.SwapReq.avgMissLatency::total 34915.666667                       # average SwapReq miss latency ((Tick/Count))
system.cpu0.dcache.SwapReq.mshrHits::cpu0.data            6                       # number of SwapReq MSHR hits (Count)
system.cpu0.dcache.SwapReq.mshrHits::total            6                       # number of SwapReq MSHR hits (Count)
system.cpu0.dcache.SwapReq.mshrMisses::cpu0.data           21                       # number of SwapReq MSHR misses (Count)
system.cpu0.dcache.SwapReq.mshrMisses::total           21                       # number of SwapReq MSHR misses (Count)
system.cpu0.dcache.SwapReq.mshrMissLatency::cpu0.data       924741                       # number of SwapReq MSHR miss ticks (Tick)
system.cpu0.dcache.SwapReq.mshrMissLatency::total       924741                       # number of SwapReq MSHR miss ticks (Tick)
system.cpu0.dcache.SwapReq.mshrMissRate::cpu0.data     0.148936                       # mshr miss rate for SwapReq accesses (Ratio)
system.cpu0.dcache.SwapReq.mshrMissRate::total     0.148936                       # mshr miss rate for SwapReq accesses (Ratio)
system.cpu0.dcache.SwapReq.avgMshrMissLatency::cpu0.data 44035.285714                       # average SwapReq mshr miss latency ((Tick/Count))
system.cpu0.dcache.SwapReq.avgMshrMissLatency::total 44035.285714                       # average SwapReq mshr miss latency ((Tick/Count))
system.cpu0.dcache.WriteReq.hits::cpu0.data      2387681                       # number of WriteReq hits (Count)
system.cpu0.dcache.WriteReq.hits::total       2387681                       # number of WriteReq hits (Count)
system.cpu0.dcache.WriteReq.misses::cpu0.data       124664                       # number of WriteReq misses (Count)
system.cpu0.dcache.WriteReq.misses::total       124664                       # number of WriteReq misses (Count)
system.cpu0.dcache.WriteReq.missLatency::cpu0.data   8966575672                       # number of WriteReq miss ticks (Tick)
system.cpu0.dcache.WriteReq.missLatency::total   8966575672                       # number of WriteReq miss ticks (Tick)
system.cpu0.dcache.WriteReq.accesses::cpu0.data      2512345                       # number of WriteReq accesses(hits+misses) (Count)
system.cpu0.dcache.WriteReq.accesses::total      2512345                       # number of WriteReq accesses(hits+misses) (Count)
system.cpu0.dcache.WriteReq.missRate::cpu0.data     0.049621                       # miss rate for WriteReq accesses (Ratio)
system.cpu0.dcache.WriteReq.missRate::total     0.049621                       # miss rate for WriteReq accesses (Ratio)
system.cpu0.dcache.WriteReq.avgMissLatency::cpu0.data 71925.942309                       # average WriteReq miss latency ((Tick/Count))
system.cpu0.dcache.WriteReq.avgMissLatency::total 71925.942309                       # average WriteReq miss latency ((Tick/Count))
system.cpu0.dcache.WriteReq.mshrHits::cpu0.data        79159                       # number of WriteReq MSHR hits (Count)
system.cpu0.dcache.WriteReq.mshrHits::total        79159                       # number of WriteReq MSHR hits (Count)
system.cpu0.dcache.WriteReq.mshrMisses::cpu0.data        45505                       # number of WriteReq MSHR misses (Count)
system.cpu0.dcache.WriteReq.mshrMisses::total        45505                       # number of WriteReq MSHR misses (Count)
system.cpu0.dcache.WriteReq.mshrMissLatency::cpu0.data   3467299775                       # number of WriteReq MSHR miss ticks (Tick)
system.cpu0.dcache.WriteReq.mshrMissLatency::total   3467299775                       # number of WriteReq MSHR miss ticks (Tick)
system.cpu0.dcache.WriteReq.mshrMissRate::cpu0.data     0.018113                       # mshr miss rate for WriteReq accesses (Ratio)
system.cpu0.dcache.WriteReq.mshrMissRate::total     0.018113                       # mshr miss rate for WriteReq accesses (Ratio)
system.cpu0.dcache.WriteReq.avgMshrMissLatency::cpu0.data 76196.017471                       # average WriteReq mshr miss latency ((Tick/Count))
system.cpu0.dcache.WriteReq.avgMshrMissLatency::total 76196.017471                       # average WriteReq mshr miss latency ((Tick/Count))
system.cpu0.dcache.power_state.pwrStateResidencyTicks::UNDEFINED   6377296653                       # Cumulative time (in ticks) in various power states (Tick)
system.cpu0.dcache.tags.tagsInUse          509.487620                       # Average ticks per tags in use ((Tick/Count))
system.cpu0.dcache.tags.totalRefs             6079879                       # Total number of references to valid blocks. (Count)
system.cpu0.dcache.tags.sampledRefs             71248                       # Sample count of references to valid blocks. (Count)
system.cpu0.dcache.tags.avgRefs             85.334030                       # Average number of references to valid blocks. ((Count/Count))
system.cpu0.dcache.tags.warmupTick             274059                       # The tick when the warmup percentage was hit. (Tick)
system.cpu0.dcache.tags.occupancies::cpu0.data   509.487620                       # Average occupied blocks per tick, per requestor ((Count/Tick))
system.cpu0.dcache.tags.avgOccs::cpu0.data     0.995093                       # Average percentage of cache occupancy ((Ratio/Tick))
system.cpu0.dcache.tags.avgOccs::total       0.995093                       # Average percentage of cache occupancy ((Ratio/Tick))
system.cpu0.dcache.tags.occupanciesTaskId::1024          510                       # Occupied blocks per task id (Count)
system.cpu0.dcache.tags.ageTaskId_1024::0          111                       # Occupied blocks per task id, per block age (Count)
system.cpu0.dcache.tags.ageTaskId_1024::1          399                       # Occupied blocks per task id, per block age (Count)
system.cpu0.dcache.tags.ratioOccsTaskId::1024     0.996094                       # Ratio of occupied blocks and all blocks, per task id (Ratio)
system.cpu0.dcache.tags.tagAccesses          50192192                       # Number of tag accesses (Count)
system.cpu0.dcache.tags.dataAccesses         50192192                       # Number of data accesses (Count)
system.cpu0.dcache.tags.power_state.pwrStateResidencyTicks::UNDEFINED   6377296653                       # Cumulative time (in ticks) in various power states (Tick)
system.cpu0.decode.idleCycles                 2260963                       # Number of cycles decode is idle (Cycle)
system.cpu0.decode.blockedCycles             12252004                       # Number of cycles decode is blocked (Cycle)
system.cpu0.decode.runCycles                  4141217                       # Number of cycles decode is running (Cycle)
system.cpu0.decode.unblockCycles               252778                       # Number of cycles decode is unblocking (Cycle)
system.cpu0.decode.squashCycles                 14028                       # Number of cycles decode is squashing (Cycle)
system.cpu0.decode.branchResolved             1407134                       # Number of times decode resolved a branch (Count)
system.cpu0.decode.branchMispred                  539                       # Number of times decode detected a branch misprediction (Count)
system.cpu0.decode.decodedInsts              24682876                       # Number of instructions handled by decode (Count)
system.cpu0.decode.squashedInsts                 2212                       # Number of squashed instructions handled by decode (Count)
system.cpu0.dtb_walker_cache.blockedCycles::no_mshrs            0                       # number of cycles access was blocked (Cycle)
system.cpu0.dtb_walker_cache.blockedCycles::no_targets            0                       # number of cycles access was blocked (Cycle)
system.cpu0.dtb_walker_cache.blockedCauses::no_mshrs            0                       # number of times access was blocked (Count)
system.cpu0.dtb_walker_cache.blockedCauses::no_targets            0                       # number of times access was blocked (Count)
system.cpu0.dtb_walker_cache.avgBlocked::no_mshrs          nan                       # average number of cycles each access was blocked ((Cycle/Count))
system.cpu0.dtb_walker_cache.avgBlocked::no_targets          nan                       # average number of cycles each access was blocked ((Cycle/Count))
system.cpu0.dtb_walker_cache.replacements            0                       # number of replacements (Count)
system.cpu0.dtb_walker_cache.power_state.pwrStateResidencyTicks::UNDEFINED   6377296653                       # Cumulative time (in ticks) in various power states (Tick)
system.cpu0.dtb_walker_cache.tags.tagsInUse            0                       # Average ticks per tags in use ((Tick/Count))
system.cpu0.dtb_walker_cache.tags.totalRefs            0                       # Total number of references to valid blocks. (Count)
system.cpu0.dtb_walker_cache.tags.sampledRefs            0                       # Sample count of references to valid blocks. (Count)
system.cpu0.dtb_walker_cache.tags.avgRefs          nan                       # Average number of references to valid blocks. ((Count/Count))
system.cpu0.dtb_walker_cache.tags.warmupTick            0                       # The tick when the warmup percentage was hit. (Tick)
system.cpu0.dtb_walker_cache.tags.tagAccesses            0                       # Number of tag accesses (Count)
system.cpu0.dtb_walker_cache.tags.dataAccesses            0                       # Number of data accesses (Count)
system.cpu0.dtb_walker_cache.tags.power_state.pwrStateResidencyTicks::UNDEFINED   6377296653                       # Cumulative time (in ticks) in various power states (Tick)
system.cpu0.fetch.icacheStallCycles           2794806                       # Number of cycles fetch is stalled on an Icache miss (Cycle)
system.cpu0.fetch.insts                      24804955                       # Number of instructions fetch has processed (Count)
system.cpu0.fetch.branches                    2673337                       # Number of branches that fetch encountered (Count)
system.cpu0.fetch.predictedBranches           1884351                       # Number of branches that fetch has predicted taken (Count)
system.cpu0.fetch.cycles                     16111521                       # Number of cycles fetch has run and was not squashing or blocked (Cycle)
system.cpu0.fetch.squashCycles                  29090                       # Number of cycles fetch has spent squashing (Cycle)
system.cpu0.fetch.miscStallCycles                   8                       # Number of cycles fetch has spent waiting on interrupts, or bad addresses, or out of MSHRs (Cycle)
system.cpu0.fetch.pendingTrapStallCycles           11                       # Number of stall cycles due to pending traps (Cycle)
system.cpu0.fetch.icacheWaitRetryStallCycles           99                       # Number of stall cycles due to full MSHR (Cycle)
system.cpu0.fetch.cacheLines                  2769212                       # Number of cache lines fetched (Count)
system.cpu0.fetch.icacheSquashes                 7620                       # Number of outstanding Icache misses that were squashed (Count)
system.cpu0.fetch.nisnDist::samples          18920990                       # Number of instructions fetched each cycle (Total) (Count)
system.cpu0.fetch.nisnDist::mean             1.310994                       # Number of instructions fetched each cycle (Total) (Count)
system.cpu0.fetch.nisnDist::stdev            2.627110                       # Number of instructions fetched each cycle (Total) (Count)
system.cpu0.fetch.nisnDist::underflows              0      0.00%      0.00% # Number of instructions fetched each cycle (Total) (Count)
system.cpu0.fetch.nisnDist::0                14104213     74.54%     74.54% # Number of instructions fetched each cycle (Total) (Count)
system.cpu0.fetch.nisnDist::1                  549239      2.90%     77.45% # Number of instructions fetched each cycle (Total) (Count)
system.cpu0.fetch.nisnDist::2                  658410      3.48%     80.93% # Number of instructions fetched each cycle (Total) (Count)
system.cpu0.fetch.nisnDist::3                  331086      1.75%     82.68% # Number of instructions fetched each cycle (Total) (Count)
system.cpu0.fetch.nisnDist::4                  834683      4.41%     87.09% # Number of instructions fetched each cycle (Total) (Count)
system.cpu0.fetch.nisnDist::5                  193823      1.02%     88.11% # Number of instructions fetched each cycle (Total) (Count)
system.cpu0.fetch.nisnDist::6                   72791      0.38%     88.50% # Number of instructions fetched each cycle (Total) (Count)
system.cpu0.fetch.nisnDist::7                  212573      1.12%     89.62% # Number of instructions fetched each cycle (Total) (Count)
system.cpu0.fetch.nisnDist::8                 1964172     10.38%    100.00% # Number of instructions fetched each cycle (Total) (Count)
system.cpu0.fetch.nisnDist::overflows               0      0.00%    100.00% # Number of instructions fetched each cycle (Total) (Count)
system.cpu0.fetch.nisnDist::min_value               0                       # Number of instructions fetched each cycle (Total) (Count)
system.cpu0.fetch.nisnDist::max_value               8                       # Number of instructions fetched each cycle (Total) (Count)
system.cpu0.fetch.nisnDist::total            18920990                       # Number of instructions fetched each cycle (Total) (Count)
system.cpu0.fetch.branchRate                 0.140634                       # Number of branch fetches per cycle (Ratio)
system.cpu0.fetch.rate                       1.304897                       # Number of inst fetches per cycle ((Count/Cycle))
system.cpu0.icache.demandHits::cpu0.inst      2768254                       # number of demand (read+write) hits (Count)
system.cpu0.icache.demandHits::total          2768254                       # number of demand (read+write) hits (Count)
system.cpu0.icache.overallHits::cpu0.inst      2768254                       # number of overall hits (Count)
system.cpu0.icache.overallHits::total         2768254                       # number of overall hits (Count)
system.cpu0.icache.demandMisses::cpu0.inst          958                       # number of demand (read+write) misses (Count)
system.cpu0.icache.demandMisses::total            958                       # number of demand (read+write) misses (Count)
system.cpu0.icache.overallMisses::cpu0.inst          958                       # number of overall misses (Count)
system.cpu0.icache.overallMisses::total           958                       # number of overall misses (Count)
system.cpu0.icache.demandMissLatency::cpu0.inst     74820770                       # number of demand (read+write) miss ticks (Tick)
system.cpu0.icache.demandMissLatency::total     74820770                       # number of demand (read+write) miss ticks (Tick)
system.cpu0.icache.overallMissLatency::cpu0.inst     74820770                       # number of overall miss ticks (Tick)
system.cpu0.icache.overallMissLatency::total     74820770                       # number of overall miss ticks (Tick)
system.cpu0.icache.demandAccesses::cpu0.inst      2769212                       # number of demand (read+write) accesses (Count)
system.cpu0.icache.demandAccesses::total      2769212                       # number of demand (read+write) accesses (Count)
system.cpu0.icache.overallAccesses::cpu0.inst      2769212                       # number of overall (read+write) accesses (Count)
system.cpu0.icache.overallAccesses::total      2769212                       # number of overall (read+write) accesses (Count)
system.cpu0.icache.demandMissRate::cpu0.inst     0.000346                       # miss rate for demand accesses (Ratio)
system.cpu0.icache.demandMissRate::total     0.000346                       # miss rate for demand accesses (Ratio)
system.cpu0.icache.overallMissRate::cpu0.inst     0.000346                       # miss rate for overall accesses (Ratio)
system.cpu0.icache.overallMissRate::total     0.000346                       # miss rate for overall accesses (Ratio)
system.cpu0.icache.demandAvgMissLatency::cpu0.inst 78101.012526                       # average overall miss latency in ticks ((Tick/Count))
system.cpu0.icache.demandAvgMissLatency::total 78101.012526                       # average overall miss latency in ticks ((Tick/Count))
system.cpu0.icache.overallAvgMissLatency::cpu0.inst 78101.012526                       # average overall miss latency ((Tick/Count))
system.cpu0.icache.overallAvgMissLatency::total 78101.012526                       # average overall miss latency ((Tick/Count))
system.cpu0.icache.blockedCycles::no_mshrs         1946                       # number of cycles access was blocked (Cycle)
system.cpu0.icache.blockedCycles::no_targets            0                       # number of cycles access was blocked (Cycle)
system.cpu0.icache.blockedCauses::no_mshrs           15                       # number of times access was blocked (Count)
system.cpu0.icache.blockedCauses::no_targets            0                       # number of times access was blocked (Count)
system.cpu0.icache.avgBlocked::no_mshrs    129.733333                       # average number of cycles each access was blocked ((Cycle/Count))
system.cpu0.icache.avgBlocked::no_targets          nan                       # average number of cycles each access was blocked ((Cycle/Count))
system.cpu0.icache.writebacks::writebacks          202                       # number of writebacks (Count)
system.cpu0.icache.writebacks::total              202                       # number of writebacks (Count)
system.cpu0.icache.demandMshrHits::cpu0.inst          253                       # number of demand (read+write) MSHR hits (Count)
system.cpu0.icache.demandMshrHits::total          253                       # number of demand (read+write) MSHR hits (Count)
system.cpu0.icache.overallMshrHits::cpu0.inst          253                       # number of overall MSHR hits (Count)
system.cpu0.icache.overallMshrHits::total          253                       # number of overall MSHR hits (Count)
system.cpu0.icache.demandMshrMisses::cpu0.inst          705                       # number of demand (read+write) MSHR misses (Count)
system.cpu0.icache.demandMshrMisses::total          705                       # number of demand (read+write) MSHR misses (Count)
system.cpu0.icache.overallMshrMisses::cpu0.inst          705                       # number of overall MSHR misses (Count)
system.cpu0.icache.overallMshrMisses::total          705                       # number of overall MSHR misses (Count)
system.cpu0.icache.demandMshrMissLatency::cpu0.inst     56941667                       # number of demand (read+write) MSHR miss ticks (Tick)
system.cpu0.icache.demandMshrMissLatency::total     56941667                       # number of demand (read+write) MSHR miss ticks (Tick)
system.cpu0.icache.overallMshrMissLatency::cpu0.inst     56941667                       # number of overall MSHR miss ticks (Tick)
system.cpu0.icache.overallMshrMissLatency::total     56941667                       # number of overall MSHR miss ticks (Tick)
system.cpu0.icache.demandMshrMissRate::cpu0.inst     0.000255                       # mshr miss ratio for demand accesses (Ratio)
system.cpu0.icache.demandMshrMissRate::total     0.000255                       # mshr miss ratio for demand accesses (Ratio)
system.cpu0.icache.overallMshrMissRate::cpu0.inst     0.000255                       # mshr miss ratio for overall accesses (Ratio)
system.cpu0.icache.overallMshrMissRate::total     0.000255                       # mshr miss ratio for overall accesses (Ratio)
system.cpu0.icache.demandAvgMshrMissLatency::cpu0.inst 80768.321986                       # average overall mshr miss latency ((Tick/Count))
system.cpu0.icache.demandAvgMshrMissLatency::total 80768.321986                       # average overall mshr miss latency ((Tick/Count))
system.cpu0.icache.overallAvgMshrMissLatency::cpu0.inst 80768.321986                       # average overall mshr miss latency ((Tick/Count))
system.cpu0.icache.overallAvgMshrMissLatency::total 80768.321986                       # average overall mshr miss latency ((Tick/Count))
system.cpu0.icache.replacements                   202                       # number of replacements (Count)
system.cpu0.icache.ReadReq.hits::cpu0.inst      2768254                       # number of ReadReq hits (Count)
system.cpu0.icache.ReadReq.hits::total        2768254                       # number of ReadReq hits (Count)
system.cpu0.icache.ReadReq.misses::cpu0.inst          958                       # number of ReadReq misses (Count)
system.cpu0.icache.ReadReq.misses::total          958                       # number of ReadReq misses (Count)
system.cpu0.icache.ReadReq.missLatency::cpu0.inst     74820770                       # number of ReadReq miss ticks (Tick)
system.cpu0.icache.ReadReq.missLatency::total     74820770                       # number of ReadReq miss ticks (Tick)
system.cpu0.icache.ReadReq.accesses::cpu0.inst      2769212                       # number of ReadReq accesses(hits+misses) (Count)
system.cpu0.icache.ReadReq.accesses::total      2769212                       # number of ReadReq accesses(hits+misses) (Count)
system.cpu0.icache.ReadReq.missRate::cpu0.inst     0.000346                       # miss rate for ReadReq accesses (Ratio)
system.cpu0.icache.ReadReq.missRate::total     0.000346                       # miss rate for ReadReq accesses (Ratio)
system.cpu0.icache.ReadReq.avgMissLatency::cpu0.inst 78101.012526                       # average ReadReq miss latency ((Tick/Count))
system.cpu0.icache.ReadReq.avgMissLatency::total 78101.012526                       # average ReadReq miss latency ((Tick/Count))
system.cpu0.icache.ReadReq.mshrHits::cpu0.inst          253                       # number of ReadReq MSHR hits (Count)
system.cpu0.icache.ReadReq.mshrHits::total          253                       # number of ReadReq MSHR hits (Count)
system.cpu0.icache.ReadReq.mshrMisses::cpu0.inst          705                       # number of ReadReq MSHR misses (Count)
system.cpu0.icache.ReadReq.mshrMisses::total          705                       # number of ReadReq MSHR misses (Count)
system.cpu0.icache.ReadReq.mshrMissLatency::cpu0.inst     56941667                       # number of ReadReq MSHR miss ticks (Tick)
system.cpu0.icache.ReadReq.mshrMissLatency::total     56941667                       # number of ReadReq MSHR miss ticks (Tick)
system.cpu0.icache.ReadReq.mshrMissRate::cpu0.inst     0.000255                       # mshr miss rate for ReadReq accesses (Ratio)
system.cpu0.icache.ReadReq.mshrMissRate::total     0.000255                       # mshr miss rate for ReadReq accesses (Ratio)
system.cpu0.icache.ReadReq.avgMshrMissLatency::cpu0.inst 80768.321986                       # average ReadReq mshr miss latency ((Tick/Count))
system.cpu0.icache.ReadReq.avgMshrMissLatency::total 80768.321986                       # average ReadReq mshr miss latency ((Tick/Count))
system.cpu0.icache.power_state.pwrStateResidencyTicks::UNDEFINED   6377296653                       # Cumulative time (in ticks) in various power states (Tick)
system.cpu0.icache.tags.tagsInUse          403.061198                       # Average ticks per tags in use ((Tick/Count))
system.cpu0.icache.tags.totalRefs             2768959                       # Total number of references to valid blocks. (Count)
[...]
system.mem_ctrls.dram.writeRowHitRate             nan                       # Row buffer hit rate for writes (Ratio)
system.mem_ctrls.dram.bytesPerActivate::samples        19101                       # Bytes accessed per row activation (Byte)
system.mem_ctrls.dram.bytesPerActivate::mean   172.392231                       # Bytes accessed per row activation (Byte)
system.mem_ctrls.dram.bytesPerActivate::gmean    92.442765                       # Bytes accessed per row activation (Byte)
system.mem_ctrls.dram.bytesPerActivate::stdev   285.981755                       # Bytes accessed per row activation (Byte)
system.mem_ctrls.dram.bytesPerActivate::0-127        15622     81.79%     81.79% # Bytes accessed per row activation (Byte)
system.mem_ctrls.dram.bytesPerActivate::128-255         1024      5.36%     87.15% # Bytes accessed per row activation (Byte)
system.mem_ctrls.dram.bytesPerActivate::256-383          165      0.86%     88.01% # Bytes accessed per row activation (Byte)
system.mem_ctrls.dram.bytesPerActivate::384-511          150      0.79%     88.80% # Bytes accessed per row activation (Byte)
system.mem_ctrls.dram.bytesPerActivate::512-639          204      1.07%     89.86% # Bytes accessed per row activation (Byte)
system.mem_ctrls.dram.bytesPerActivate::640-767           75      0.39%     90.26% # Bytes accessed per row activation (Byte)
system.mem_ctrls.dram.bytesPerActivate::768-895           76      0.40%     90.65% # Bytes accessed per row activation (Byte)
system.mem_ctrls.dram.bytesPerActivate::896-1023           53      0.28%     90.93% # Bytes accessed per row activation (Byte)
system.mem_ctrls.dram.bytesPerActivate::1024-1151         1732      9.07%    100.00% # Bytes accessed per row activation (Byte)
system.mem_ctrls.dram.bytesPerActivate::total        19101                       # Bytes accessed per row activation (Byte)
system.mem_ctrls.dram.bytesRead               3292928                       # Total bytes read (Byte)
system.mem_ctrls.dram.bytesWritten                  0                       # Total bytes written (Byte)
system.mem_ctrls.dram.avgRdBW              516.351705                       # Average DRAM read bandwidth in MiBytes/s ((Byte/Second))
system.mem_ctrls.dram.avgWrBW                       0                       # Average DRAM write bandwidth in MiBytes/s ((Byte/Second))
system.mem_ctrls.dram.peakBW                 12800.00                       # Theoretical peak bandwidth in MiByte/s ((Byte/Second))
system.mem_ctrls.dram.busUtil                    4.03                       # Data bus utilization in percentage (Ratio)
system.mem_ctrls.dram.busUtilRead                4.03                       # Data bus utilization in percentage for reads (Ratio)
system.mem_ctrls.dram.busUtilWrite               0.00                       # Data bus utilization in percentage for writes (Ratio)
system.mem_ctrls.dram.pageHitRate               62.87                       # Row buffer hit rate, read and write combined (Ratio)
system.mem_ctrls.dram.power_state.pwrStateResidencyTicks::UNDEFINED   6377296653                       # Cumulative time (in ticks) in various power states (Tick)
system.mem_ctrls.dram.rank0.actEnergy        69586440                       # Energy for activate commands per rank (pJ) (Joule)
system.mem_ctrls.dram.rank0.preEnergy        36986070                       # Energy for precharge commands per rank (pJ) (Joule)
system.mem_ctrls.dram.rank0.readEnergy      187018020                       # Energy for read commands per rank (pJ) (Joule)
system.mem_ctrls.dram.rank0.writeEnergy             0                       # Energy for write commands per rank (pJ) (Joule)
system.mem_ctrls.dram.rank0.refreshEnergy 503390160.000000                       # Energy for refresh commands per rank (pJ) (Joule)
system.mem_ctrls.dram.rank0.actBackEnergy   1502732040                       # Energy for active background per rank (pJ) (Joule)
system.mem_ctrls.dram.rank0.preBackEnergy   1183423680                       # Energy for precharge background per rank (pJ) (Joule)
system.mem_ctrls.dram.rank0.actPowerDownEnergy            0                       # Energy for active power-down per rank (pJ) (Joule)
system.mem_ctrls.dram.rank0.prePowerDownEnergy            0                       # Energy for precharge power-down per rank (pJ) (Joule)
system.mem_ctrls.dram.rank0.selfRefreshEnergy            0                       # Energy for self refresh per rank (pJ) (Joule)
system.mem_ctrls.dram.rank0.totalEnergy    3483136410                       # Total energy per rank (pJ) (Joule)
system.mem_ctrls.dram.rank0.averagePower   546.177573                       # Core power per rank (mW) (Watt)
system.mem_ctrls.dram.rank0.totalIdleTime            0                       # Total Idle time Per DRAM Rank (Tick)
system.mem_ctrls.dram.rank0.pwrStateTime::IDLE   3054157124                       # Time in different power states (Tick)
system.mem_ctrls.dram.rank0.pwrStateTime::REF    212940000                       # Time in different power states (Tick)
system.mem_ctrls.dram.rank0.pwrStateTime::SREF            0                       # Time in different power states (Tick)
system.mem_ctrls.dram.rank0.pwrStateTime::PRE_PDN            0                       # Time in different power states (Tick)
system.mem_ctrls.dram.rank0.pwrStateTime::ACT   3110199529                       # Time in different power states (Tick)
system.mem_ctrls.dram.rank0.pwrStateTime::ACT_PDN            0                       # Time in different power states (Tick)
system.mem_ctrls.dram.rank1.actEnergy        66801840                       # Energy for activate commands per rank (pJ) (Joule)
system.mem_ctrls.dram.rank1.preEnergy        35502225                       # Energy for precharge commands per rank (pJ) (Joule)
system.mem_ctrls.dram.rank1.readEnergy      180349260                       # Energy for read commands per rank (pJ) (Joule)
system.mem_ctrls.dram.rank1.writeEnergy             0                       # Energy for write commands per rank (pJ) (Joule)
system.mem_ctrls.dram.rank1.refreshEnergy 503390160.000000                       # Energy for refresh commands per rank (pJ) (Joule)
system.mem_ctrls.dram.rank1.actBackEnergy   1466107260                       # Energy for active background per rank (pJ) (Joule)
system.mem_ctrls.dram.rank1.preBackEnergy   1214265600                       # Energy for precharge background per rank (pJ) (Joule)
system.mem_ctrls.dram.rank1.actPowerDownEnergy            0                       # Energy for active power-down per rank (pJ) (Joule)
system.mem_ctrls.dram.rank1.prePowerDownEnergy            0                       # Energy for precharge power-down per rank (pJ) (Joule)
system.mem_ctrls.dram.rank1.selfRefreshEnergy            0                       # Energy for self refresh per rank (pJ) (Joule)
system.mem_ctrls.dram.rank1.totalEnergy    3466416345                       # Total energy per rank (pJ) (Joule)
system.mem_ctrls.dram.rank1.averagePower   543.555763                       # Core power per rank (mW) (Watt)
system.mem_ctrls.dram.rank1.totalIdleTime            0                       # Total Idle time Per DRAM Rank (Tick)
system.mem_ctrls.dram.rank1.pwrStateTime::IDLE   3134822201                       # Time in different power states (Tick)
system.mem_ctrls.dram.rank1.pwrStateTime::REF    212940000                       # Time in different power states (Tick)
system.mem_ctrls.dram.rank1.pwrStateTime::SREF            0                       # Time in different power states (Tick)
system.mem_ctrls.dram.rank1.pwrStateTime::PRE_PDN            0                       # Time in different power states (Tick)
system.mem_ctrls.dram.rank1.pwrStateTime::ACT   3029534452                       # Time in different power states (Tick)
system.mem_ctrls.dram.rank1.pwrStateTime::ACT_PDN            0                       # Time in different power states (Tick)
system.mem_ctrls.power_state.pwrStateResidencyTicks::UNDEFINED   6377296653                       # Cumulative time (in ticks) in various power states (Tick)
system.membus.transDist::ReadResp                1570                       # Transaction distribution (Count)
system.membus.transDist::UpgradeReq              1951                       # Transaction distribution (Count)
system.membus.transDist::SCUpgradeReq              50                       # Transaction distribution (Count)
system.membus.transDist::ReadExReq              53789                       # Transaction distribution (Count)
system.membus.transDist::ReadExResp             49882                       # Transaction distribution (Count)
system.membus.transDist::ReadSharedReq           1570                       # Transaction distribution (Count)
system.membus.transDist::InvalidateReq              2                       # Transaction distribution (Count)
system.membus.pktCount_system.l3.mem_side_port::system.mem_ctrls.port       108814                       # Packet count per connected requestor and responder (Count)
system.membus.pktCount::total                  108814                       # Packet count per connected requestor and responder (Count)
system.membus.pktSize_system.l3.mem_side_port::system.mem_ctrls.port      3292928                       # Cumulative packet size per connected requestor and responder (Byte)
system.membus.pktSize::total                  3292928                       # Cumulative packet size per connected requestor and responder (Byte)
system.membus.snoops                             5908                       # Total snoops (Count)
system.membus.snoopTraffic                          0                       # Total snoop traffic (Byte)
system.membus.snoopFanout::samples              57362                       # Request fanout histogram (Count)
system.membus.snoopFanout::mean                     0                       # Request fanout histogram (Count)
system.membus.snoopFanout::stdev                    0                       # Request fanout histogram (Count)
system.membus.snoopFanout::underflows               0      0.00%      0.00% # Request fanout histogram (Count)
system.membus.snoopFanout::0                    57362    100.00%    100.00% # Request fanout histogram (Count)
system.membus.snoopFanout::1                        0      0.00%    100.00% # Request fanout histogram (Count)
system.membus.snoopFanout::overflows                0      0.00%    100.00% # Request fanout histogram (Count)
system.membus.snoopFanout::min_value                0                       # Request fanout histogram (Count)
system.membus.snoopFanout::max_value                0                       # Request fanout histogram (Count)
system.membus.snoopFanout::total                57362                       # Request fanout histogram (Count)
system.membus.power_state.pwrStateResidencyTicks::UNDEFINED   6377296653                       # Cumulative time (in ticks) in various power states (Tick)
system.membus.reqLayer0.occupancy            76156282                       # Layer occupancy (ticks) (Tick)
system.membus.reqLayer0.utilization               0.0                       # Layer utilization (Ratio)
system.membus.respLayer1.occupancy          274325249                       # Layer occupancy (ticks) (Tick)
system.membus.respLayer1.utilization              0.0                       # Layer utilization (Ratio)
system.membus.snoop_filter.totRequests          57362                       # Total number of requests made to the snoop filter. (Count)
system.membus.snoop_filter.hitSingleRequests         5908                       # Number of requests hitting in the snoop filter with a single holder of the requested data. (Count)
system.membus.snoop_filter.hitMultiRequests            0                       # Number of requests hitting in the snoop filter with multiple (>1) holders of the requested data. (Count)
system.membus.snoop_filter.totSnoops                0                       # Total number of snoops made to the snoop filter. (Count)
system.membus.snoop_filter.hitSingleSnoops            0                       # Number of snoops hitting in the snoop filter with a single holder of the requested data. (Count)
system.membus.snoop_filter.hitMultiSnoops            0                       # Number of snoops hitting in the snoop filter with multiple (>1) holders of the requested data. (Count)
system.tol3bus.transDist::ReadResp              54342                       # Transaction distribution (Count)
system.tol3bus.transDist::ReadRespWithInvalidate            2                       # Transaction distribution (Count)
system.tol3bus.transDist::WritebackDirty         7476                       # Transaction distribution (Count)
system.tol3bus.transDist::CleanEvict               81                       # Transaction distribution (Count)
system.tol3bus.transDist::UpgradeReq            16906                       # Transaction distribution (Count)
system.tol3bus.transDist::SCUpgradeReq             64                       # Transaction distribution (Count)
system.tol3bus.transDist::UpgradeResp           16970                       # Transaction distribution (Count)
system.tol3bus.transDist::SCUpgradeFailReq            9                       # Transaction distribution (Count)
system.tol3bus.transDist::UpgradeFailResp            9                       # Transaction distribution (Count)
system.tol3bus.transDist::ReadExReq             59972                       # Transaction distribution (Count)
system.tol3bus.transDist::ReadExResp            59972                       # Transaction distribution (Count)
system.tol3bus.transDist::ReadSharedReq         54344                       # Transaction distribution (Count)
system.tol3bus.transDist::InvalidateReq             2                       # Transaction distribution (Count)
system.tol3bus.transDist::InvalidateResp            2                       # Transaction distribution (Count)
system.tol3bus.pktCount_system.cpu0.l2cache.mem_side_port::system.l3.cpu_side_port       104857                       # Packet count per connected requestor and responder (Count)
system.tol3bus.pktCount_system.cpu1.l2cache.mem_side_port::system.l3.cpu_side_port        35945                       # Packet count per connected requestor and responder (Count)
system.tol3bus.pktCount_system.cpu2.l2cache.mem_side_port::system.l3.cpu_side_port        36113                       # Packet count per connected requestor and responder (Count)
system.tol3bus.pktCount_system.cpu3.l2cache.mem_side_port::system.l3.cpu_side_port        35821                       # Packet count per connected requestor and responder (Count)
system.tol3bus.pktCount::total                 212736                       # Packet count per connected requestor and responder (Count)
system.tol3bus.pktSize_system.cpu0.l2cache.mem_side_port::system.l3.cpu_side_port      3030720                       # Cumulative packet size per connected requestor and responder (Byte)
system.tol3bus.pktSize_system.cpu1.l2cache.mem_side_port::system.l3.cpu_side_port       420480                       # Cumulative packet size per connected requestor and responder (Byte)
system.tol3bus.pktSize_system.cpu2.l2cache.mem_side_port::system.l3.cpu_side_port       408768                       # Cumulative packet size per connected requestor and responder (Byte)
system.tol3bus.pktSize_system.cpu3.l2cache.mem_side_port::system.l3.cpu_side_port       388800                       # Cumulative packet size per connected requestor and responder (Byte)
system.tol3bus.pktSize::total                 4248768                       # Cumulative packet size per connected requestor and responder (Byte)
system.tol3bus.snoops                           57415                       # Total snoops (Count)
system.tol3bus.snoopTraffic                   3546496                       # Total snoop traffic (Byte)
system.tol3bus.snoopFanout::samples            131297                       # Request fanout histogram (Count)
system.tol3bus.snoopFanout::mean             0.618567                       # Request fanout histogram (Count)
system.tol3bus.snoopFanout::stdev            0.578083                       # Request fanout histogram (Count)
system.tol3bus.snoopFanout::underflows              0      0.00%      0.00% # Request fanout histogram (Count)
system.tol3bus.snoopFanout::0                   56136     42.75%     42.75% # Request fanout histogram (Count)
system.tol3bus.snoopFanout::1                   69500     52.93%     95.69% # Request fanout histogram (Count)
system.tol3bus.snoopFanout::2                    5267      4.01%     99.70% # Request fanout histogram (Count)
system.tol3bus.snoopFanout::3                     394      0.30%    100.00% # Request fanout histogram (Count)
system.tol3bus.snoopFanout::4                       0      0.00%    100.00% # Request fanout histogram (Count)
system.tol3bus.snoopFanout::overflows               0      0.00%    100.00% # Request fanout histogram (Count)
system.tol3bus.snoopFanout::min_value               0                       # Request fanout histogram (Count)
system.tol3bus.snoopFanout::max_value               3                       # Request fanout histogram (Count)
system.tol3bus.snoopFanout::total              131297                       # Request fanout histogram (Count)
system.tol3bus.power_state.pwrStateResidencyTicks::UNDEFINED   6377296653                       # Cumulative time (in ticks) in various power states (Tick)
system.tol3bus.reqLayer0.occupancy           51217732                       # Layer occupancy (ticks) (Tick)
system.tol3bus.reqLayer0.utilization              0.0                       # Layer utilization (Ratio)
system.tol3bus.respLayer0.occupancy          48348882                       # Layer occupancy (ticks) (Tick)
system.tol3bus.respLayer0.utilization             0.0                       # Layer utilization (Ratio)
system.tol3bus.respLayer1.occupancy          23848024                       # Layer occupancy (ticks) (Tick)
system.tol3bus.respLayer1.utilization             0.0                       # Layer utilization (Ratio)
system.tol3bus.respLayer2.occupancy          23895322                       # Layer occupancy (ticks) (Tick)
system.tol3bus.respLayer2.utilization             0.0                       # Layer utilization (Ratio)
system.tol3bus.respLayer3.occupancy          23881982                       # Layer occupancy (ticks) (Tick)
system.tol3bus.respLayer3.utilization             0.0                       # Layer utilization (Ratio)
system.tol3bus.snoop_filter.totRequests        138854                       # Total number of requests made to the snoop filter. (Count)
system.tol3bus.snoop_filter.hitSingleRequests        53647                       # Number of requests hitting in the snoop filter with a single holder of the requested data. (Count)
system.tol3bus.snoop_filter.hitMultiRequests        29294                       # Number of requests hitting in the snoop filter with multiple (>1) holders of the requested data. (Count)
system.tol3bus.snoop_filter.totSnoops               0                       # Total number of snoops made to the snoop filter. (Count)
system.tol3bus.snoop_filter.hitSingleSnoops            0                       # Number of snoops hitting in the snoop filter with a single holder of the requested data. (Count)
system.tol3bus.snoop_filter.hitMultiSnoops            0                       # Number of snoops hitting in the snoop filter with multiple (>1) holders of the requested data. (Count)
system.voltage_domain.voltage                       1                       # Voltage in Volts (Volt)
system.workload.inst.arm                            0                       # number of arm instructions executed (Count)
system.workload.inst.quiesce                        0                       # number of quiesce instructions executed (Count)

---------- End Simulation Statistics   ----------
