
---------- Begin Simulation Statistics ----------
simSeconds                                   0.150386                       # Number of seconds simulated (Second)
simTicks                                 150385593204                       # Number of ticks simulated (Tick)
finalTick                                150385593204                       # Number of ticks from beginning of simulation (restored from checkpoints and never reset) (Tick)
simFreq                                  1000000000000                       # The number of ticks per simulated second ((Tick/Second))
hostSeconds                                    484.09                       # Real time elapsed on the host (Second)
hostTickRate                                310655857                       # The number of ticks simulated per host second (ticks/s) ((Tick/Second))
hostMemory                                     717980                       # Number of bytes of host memory used (Byte)
simInsts                                    249691918                       # Number of instructions simulated (Count)
simOps                                      249691979                       # Number of ops (including micro ops) simulated (Count)
hostInstRate                                   515795                       # Simulator instruction rate (inst/s) ((Count/Second))
hostOpRate                                     515795                       # Simulator op (including micro ops) rate (op/s) ((Count/Second))
system.clk_domain.clock                          1000                       # Clock period in ticks (Tick)
system.cpu.numCycles                        451608390                       # Number of cpu cycles simulated (Cycle)
system.cpu.numWorkItemsStarted                      0                       # Number of work items this cpu started (Count)
system.cpu.numWorkItemsCompleted                    0                       # Number of work items this cpu completed (Count)
system.cpu.instsAdded                       250183985                       # Number of instructions added to the IQ (excludes non-spec) (Count)
system.cpu.nonSpecInstsAdded                      470                       # Number of non-speculative instructions added to the IQ (Count)
system.cpu.instsIssued                      255306139                       # Number of instructions issued (Count)
system.cpu.squashedInstsIssued                    278                       # Number of squashed instructions issued (Count)
system.cpu.squashedInstsExamined               492475                       # Number of squashed instructions iterated over during squash; mainly for profiling (Count)
system.cpu.squashedOperandsExamined            285167                       # Number of squashed operands that are examined and possibly removed from graph (Count)
system.cpu.squashedNonSpecRemoved                 197                       # Number of squashed non-spec instructions that were removed (Count)
system.cpu.numIssuedDist::samples           451526011                       # Number of insts issued each cycle (Count)
system.cpu.numIssuedDist::mean               0.565430                       # Number of insts issued each cycle (Count)
system.cpu.numIssuedDist::stdev              0.983347                       # Number of insts issued each cycle (Count)
system.cpu.numIssuedDist::underflows                0      0.00%      0.00% # Number of insts issued each cycle (Count)
system.cpu.numIssuedDist::0                 289210632     64.05%     64.05% # Number of insts issued each cycle (Count)
system.cpu.numIssuedDist::1                 103955177     23.02%     87.07% # Number of insts issued each cycle (Count)
system.cpu.numIssuedDist::2                  41323454      9.15%     96.23% # Number of insts issued each cycle (Count)
system.cpu.numIssuedDist::3                   9490568      2.10%     98.33% # Number of insts issued each cycle (Count)
system.cpu.numIssuedDist::4                   2502506      0.55%     98.88% # Number of insts issued each cycle (Count)
system.cpu.numIssuedDist::5                   1911422      0.42%     99.31% # Number of insts issued each cycle (Count)
system.cpu.numIssuedDist::6                   1954256      0.43%     99.74% # Number of insts issued each cycle (Count)
system.cpu.numIssuedDist::7                    484288      0.11%     99.85% # Number of insts issued each cycle (Count)
system.cpu.numIssuedDist::8                    693708      0.15%    100.00% # Number of insts issued each cycle (Count)
system.cpu.numIssuedDist::overflows                 0      0.00%    100.00% # Number of insts issued each cycle (Count)
system.cpu.numIssuedDist::min_value                 0                       # Number of insts issued each cycle (Count)
system.cpu.numIssuedDist::max_value                 8                       # Number of insts issued each cycle (Count)
system.cpu.numIssuedDist::total             451526011                       # Number of insts issued each cycle (Count)
system.cpu.statFuBusy::No_OpClass                   0      0.00%      0.00% # attempts to use FU when none available (Count)
system.cpu.statFuBusy::IntAlu                 1560368     68.56%     68.56% # attempts to use FU when none available (Count)
system.cpu.statFuBusy::IntMult                      6      0.00%     68.56% # attempts to use FU when none available (Count)
system.cpu.statFuBusy::IntDiv                      18      0.00%     68.57% # attempts to use FU when none available (Count)
system.cpu.statFuBusy::FloatAdd                     0      0.00%     68.57% # attempts to use FU when none available (Count)
system.cpu.statFuBusy::FloatCmp                     0      0.00%     68.57% # attempts to use FU when none available (Count)
system.cpu.statFuBusy::FloatCvt                     0      0.00%     68.57% # attempts to use FU when none available (Count)
system.cpu.statFuBusy::FloatMult                 2052      0.09%     68.66% # attempts to use FU when none available (Count)
system.cpu.statFuBusy::FloatMultAcc                 0      0.00%     68.66% # attempts to use FU when none available (Count)
system.cpu.statFuBusy::FloatDiv                    12      0.00%     68.66% # attempts to use FU when none available (Count)
system.cpu.statFuBusy::FloatMisc                   14      0.00%     68.66% # attempts to use FU when none available (Count)
system.cpu.statFuBusy::FloatSqrt                    0      0.00%     68.66% # attempts to use FU when none available (Count)
system.cpu.statFuBusy::SimdAdd                      0      0.00%     68.66% # attempts to use FU when none available (Count)
system.cpu.statFuBusy::SimdAddAcc                   0      0.00%     68.66% # attempts to use FU when none available (Count)
system.cpu.statFuBusy::SimdAlu                      0      0.00%     68.66% # attempts to use FU when none available (Count)
system.cpu.statFuBusy::SimdCmp                      0      0.00%     68.66% # attempts to use FU when none available (Count)
system.cpu.statFuBusy::SimdCvt                      0      0.00%     68.66% # attempts to use FU when none available (Count)
system.cpu.statFuBusy::SimdMisc                     0      0.00%     68.66% # attempts to use FU when none available (Count)
system.cpu.statFuBusy::SimdMult                     0      0.00%     68.66% # attempts to use FU when none available (Count)
system.cpu.statFuBusy::SimdMultAcc                  0      0.00%     68.66% # attempts to use FU when none available (Count)
system.cpu.statFuBusy::SimdShift                    0      0.00%     68.66% # attempts to use FU when none available (Count)
system.cpu.statFuBusy::SimdShiftAcc                 0      0.00%     68.66% # attempts to use FU when none available (Count)
system.cpu.statFuBusy::SimdDiv                      0      0.00%     68.66% # attempts to use FU when none available (Count)
system.cpu.statFuBusy::SimdSqrt                     0      0.00%     68.66% # attempts to use FU when none available (Count)
system.cpu.statFuBusy::SimdFloatAdd                 0      0.00%     68.66% # attempts to use FU when none available (Count)
system.cpu.statFuBusy::SimdFloatAlu                 0      0.00%     68.66% # attempts to use FU when none available (Count)
system.cpu.statFuBusy::SimdFloatCmp                 0      0.00%     68.66% # attempts to use FU when none available (Count)
system.cpu.statFuBusy::SimdFloatCvt                 0      0.00%     68.66% # attempts to use FU when none available (Count)
system.cpu.statFuBusy::SimdFloatDiv                 0      0.00%     68.66% # attempts to use FU when none available (Count)
system.cpu.statFuBusy::SimdFloatMisc                0      0.00%     68.66% # attempts to use FU when none available (Count)
system.cpu.statFuBusy::SimdFloatMult                0      0.00%     68.66% # attempts to use FU when none available (Count)
system.cpu.statFuBusy::SimdFloatMultAcc             0      0.00%     68.66% # attempts to use FU when none available (Count)
system.cpu.statFuBusy::SimdFloatSqrt                0      0.00%     68.66% # attempts to use FU when none available (Count)
system.cpu.statFuBusy::SimdReduceAdd                0      0.00%     68.66% # attempts to use FU when none available (Count)
system.cpu.statFuBusy::SimdReduceAlu                0      0.00%     68.66% # attempts to use FU when none available (Count)
system.cpu.statFuBusy::SimdReduceCmp                0      0.00%     68.66% # attempts to use FU when none available (Count)
system.cpu.statFuBusy::SimdFloatReduceAdd            0      0.00%     68.66% # attempts to use FU when none available (Count)
system.cpu.statFuBusy::SimdFloatReduceCmp            0      0.00%     68.66% # attempts to use FU when none available (Count)
system.cpu.statFuBusy::SimdAes                      0      0.00%     68.66% # attempts to use FU when none available (Count)
system.cpu.statFuBusy::SimdAesMix                   0      0.00%     68.66% # attempts to use FU when none available (Count)
system.cpu.statFuBusy::SimdSha1Hash                 0      0.00%     68.66% # attempts to use FU when none available (Count)
system.cpu.statFuBusy::SimdSha1Hash2                0      0.00%     68.66% # attempts to use FU when none available (Count)
system.cpu.statFuBusy::SimdSha256Hash               0      0.00%     68.66% # attempts to use FU when none available (Count)
system.cpu.statFuBusy::SimdSha256Hash2              0      0.00%     68.66% # attempts to use FU when none available (Count)
system.cpu.statFuBusy::SimdShaSigma2                0      0.00%     68.66% # attempts to use FU when none available (Count)
system.cpu.statFuBusy::SimdShaSigma3                0      0.00%     68.66% # attempts to use FU when none available (Count)
system.cpu.statFuBusy::SimdPredAlu                  0      0.00%     68.66% # attempts to use FU when none available (Count)
system.cpu.statFuBusy::MemRead                 712072     31.29%     99.95% # attempts to use FU when none available (Count)
system.cpu.statFuBusy::MemWrite                  1213      0.05%    100.00% # attempts to use FU when none available (Count)
system.cpu.statFuBusy::FloatMemRead                 4      0.00%    100.00% # attempts to use FU when none available (Count)
system.cpu.statFuBusy::FloatMemWrite               10      0.00%    100.00% # attempts to use FU when none available (Count)
system.cpu.statFuBusy::IprAccess                    0      0.00%    100.00% # attempts to use FU when none available (Count)
system.cpu.statFuBusy::InstPrefetch                 0      0.00%    100.00% # attempts to use FU when none available (Count)
system.cpu.statIssuedInstType_0::No_OpClass          185      0.00%      0.00% # Number of instructions issued per FU type, per thread (Count)
system.cpu.statIssuedInstType_0::IntAlu      69427649     27.19%     27.19% # Number of instructions issued per FU type, per thread (Count)
system.cpu.statIssuedInstType_0::IntMult           58      0.00%     27.19% # Number of instructions issued per FU type, per thread (Count)
system.cpu.statIssuedInstType_0::IntDiv           130      0.00%     27.19% # Number of instructions issued per FU type, per thread (Count)
system.cpu.statIssuedInstType_0::FloatAdd     28323858     11.09%     38.29% # Number of instructions issued per FU type, per thread (Count)
system.cpu.statIssuedInstType_0::FloatCmp            6      0.00%     38.29% # Number of instructions issued per FU type, per thread (Count)
system.cpu.statIssuedInstType_0::FloatCvt     35676196     13.97%     52.26% # Number of instructions issued per FU type, per thread (Count)
system.cpu.statIssuedInstType_0::FloatMult     56651801     22.19%     74.45% # Number of instructions issued per FU type, per thread (Count)
system.cpu.statIssuedInstType_0::FloatMultAcc            0      0.00%     74.45% # Number of instructions issued per FU type, per thread (Count)
system.cpu.statIssuedInstType_0::FloatDiv            3      0.00%     74.45% # Number of instructions issued per FU type, per thread (Count)
system.cpu.statIssuedInstType_0::FloatMisc      6297617      2.47%     76.92% # Number of instructions issued per FU type, per thread (Count)
system.cpu.statIssuedInstType_0::FloatSqrt            0      0.00%     76.92% # Number of instructions issued per FU type, per thread (Count)
system.cpu.statIssuedInstType_0::SimdAdd            0      0.00%     76.92% # Number of instructions issued per FU type, per thread (Count)
system.cpu.statIssuedInstType_0::SimdAddAcc            0      0.00%     76.92% # Number of instructions issued per FU type, per thread (Count)
system.cpu.statIssuedInstType_0::SimdAlu            0      0.00%     76.92% # Number of instructions issued per FU type, per thread (Count)
system.cpu.statIssuedInstType_0::SimdCmp            0      0.00%     76.92% # Number of instructions issued per FU type, per thread (Count)
system.cpu.statIssuedInstType_0::SimdCvt            0      0.00%     76.92% # Number of instructions issued per FU type, per thread (Count)
system.cpu.statIssuedInstType_0::SimdMisc            0      0.00%     76.92% # Number of instructions issued per FU type, per thread (Count)
system.cpu.statIssuedInstType_0::SimdMult            0      0.00%     76.92% # Number of instructions issued per FU type, per thread (Count)
system.cpu.statIssuedInstType_0::SimdMultAcc            0      0.00%     76.92% # Number of instructions issued per FU type, per thread (Count)
system.cpu.statIssuedInstType_0::SimdShift            0      0.00%     76.92% # Number of instructions issued per FU type, per thread (Count)
system.cpu.statIssuedInstType_0::SimdShiftAcc            0      0.00%     76.92% # Number of instructions issued per FU type, per thread (Count)
system.cpu.statIssuedInstType_0::SimdDiv            0      0.00%     76.92% # Number of instructions issued per FU type, per thread (Count)
system.cpu.statIssuedInstType_0::SimdSqrt            0      0.00%     76.92% # Number of instructions issued per FU type, per thread (Count)
system.cpu.statIssuedInstType_0::SimdFloatAdd            0      0.00%     76.92% # Number of instructions issued per FU type, per thread (Count)
system.cpu.statIssuedInstType_0::SimdFloatAlu            0      0.00%     76.92% # Number of instructions issued per FU type, per thread (Count)
system.cpu.statIssuedInstType_0::SimdFloatCmp            0      0.00%     76.92% # Number of instructions issued per FU type, per thread (Count)
system.cpu.statIssuedInstType_0::SimdFloatCvt            0      0.00%     76.92% # Number of instructions issued per FU type, per thread (Count)
system.cpu.statIssuedInstType_0::SimdFloatDiv            0      0.00%     76.92% # Number of instructions issued per FU type, per thread (Count)
system.cpu.statIssuedInstType_0::SimdFloatMisc            0      0.00%     76.92% # Number of instructions issued per FU type, per thread (Count)
system.cpu.statIssuedInstType_0::SimdFloatMult            0      0.00%     76.92% # Number of instructions issued per FU type, per thread (Count)
system.cpu.statIssuedInstType_0::SimdFloatMultAcc            0      0.00%     76.92% # Number of instructions issued per FU type, per thread (Count)
system.cpu.statIssuedInstType_0::SimdFloatSqrt            0      0.00%     76.92% # Number of instructions issued per FU type, per thread (Count)
system.cpu.statIssuedInstType_0::SimdReduceAdd            0      0.00%     76.92% # Number of instructions issued per FU type, per thread (Count)
system.cpu.statIssuedInstType_0::SimdReduceAlu            0      0.00%     76.92% # Number of instructions issued per FU type, per thread (Count)
system.cpu.statIssuedInstType_0::SimdReduceCmp            0      0.00%     76.92% # Number of instructions issued per FU type, per thread (Count)
system.cpu.statIssuedInstType_0::SimdFloatReduceAdd            0      0.00%     76.92% # Number of instructions issued per FU type, per thread (Count)
system.cpu.statIssuedInstType_0::SimdFloatReduceCmp            0      0.00%     76.92% # Number of instructions issued per FU type, per thread (Count)
system.cpu.statIssuedInstType_0::SimdAes            0      0.00%     76.92% # Number of instructions issued per FU type, per thread (Count)
system.cpu.statIssuedInstType_0::SimdAesMix            0      0.00%     76.92% # Number of instructions issued per FU type, per thread (Count)
system.cpu.statIssuedInstType_0::SimdSha1Hash            0      0.00%     76.92% # Number of instructions issued per FU type, per thread (Count)
system.cpu.statIssuedInstType_0::SimdSha1Hash2            0      0.00%     76.92% # Number of instructions issued per FU type, per thread (Count)
system.cpu.statIssuedInstType_0::SimdSha256Hash            0      0.00%     76.92% # Number of instructions issued per FU type, per thread (Count)
system.cpu.statIssuedInstType_0::SimdSha256Hash2            0      0.00%     76.92% # Number of instructions issued per FU type, per thread (Count)
system.cpu.statIssuedInstType_0::SimdShaSigma2            0      0.00%     76.92% # Number of instructions issued per FU type, per thread (Count)
system.cpu.statIssuedInstType_0::SimdShaSigma3            0      0.00%     76.92% # Number of instructions issued per FU type, per thread (Count)
system.cpu.statIssuedInstType_0::SimdPredAlu            0      0.00%     76.92% # Number of instructions issued per FU type, per thread (Count)
system.cpu.statIssuedInstType_0::MemRead     31587226     12.37%     89.29% # Number of instructions issued per FU type, per thread (Count)
system.cpu.statIssuedInstType_0::MemWrite     10535453      4.13%     93.42% # Number of instructions issued per FU type, per thread (Count)
system.cpu.statIssuedInstType_0::FloatMemRead     16805922      6.58%    100.00% # Number of instructions issued per FU type, per thread (Count)
system.cpu.statIssuedInstType_0::FloatMemWrite           35      0.00%    100.00% # Number of instructions issued per FU type, per thread (Count)
system.cpu.statIssuedInstType_0::IprAccess            0      0.00%    100.00% # Number of instructions issued per FU type, per thread (Count)
system.cpu.statIssuedInstType_0::InstPrefetch            0      0.00%    100.00% # Number of instructions issued per FU type, per thread (Count)
system.cpu.statIssuedInstType_0::total      255306139                       # Number of instructions issued per FU type, per thread (Count)
system.cpu.issueRate                         0.565326                       # Inst issue rate ((Count/Cycle))
system.cpu.fuBusy                             2275769                       # FU busy when requested (Count)
system.cpu.fuBusyRate                        0.008914                       # FU busy rate (busy events/executed inst) ((Count/Count))
system.cpu.intInstQueueReads                676901368                       # Number of integer instruction queue reads (Count)
system.cpu.intInstQueueWrites               106571328                       # Number of integer instruction queue writes (Count)
system.cpu.intInstQueueWakeupAccesses       106258793                       # Number of integer instruction queue wakeup accesses (Count)
system.cpu.fpInstQueueReads                 287512968                       # Number of floating instruction queue reads (Count)
system.cpu.fpInstQueueWrites                144105726                       # Number of floating instruction queue writes (Count)
system.cpu.fpInstQueueWakeupAccesses        143753386                       # Number of floating instruction queue wakeup accesses (Count)
system.cpu.vecInstQueueReads                        0                       # Number of vector instruction queue reads (Count)
system.cpu.vecInstQueueWrites                       0                       # Number of vector instruction queue writes (Count)
system.cpu.vecInstQueueWakeupAccesses               0                       # Number of vector instruction queue wakeup accesses (Count)
system.cpu.intAluAccesses                   113824193                       # Number of integer alu accesses (Count)
system.cpu.fpAluAccesses                    143757530                       # Number of floating point alu accesses (Count)
system.cpu.vecAluAccesses                           0                       # Number of vector alu accesses (Count)
system.cpu.numInsts                         255302273                       # Number of executed instructions (Count)
system.cpu.numLoadInsts                      48392537                       # Number of load instructions executed (Count)
system.cpu.numSquashedInsts                      3866                       # Number of squashed instructions skipped in execute (Count)
system.cpu.numSwp                                   0                       # Number of swp insts executed (Count)
system.cpu.numNop                                   0                       # Number of nop insts executed (Count)
system.cpu.numRefs                           58927799                       # Number of memory reference insts executed (Count)
system.cpu.numBranches                       15782433                       # Number of branches executed (Count)
system.cpu.numStoreInsts                     10535262                       # Number of stores executed (Count)
system.cpu.numRate                           0.565318                       # Inst execution rate ((Count/Cycle))
system.cpu.timesIdled                             456                       # Number of times that the entire CPU went into an idle state and unscheduled itself (Count)
system.cpu.idleCycles                           82379                       # Total number of cycles that the CPU has spent unscheduled due to idling (Cycle)
system.cpu.committedInsts                   249691918                       # Number of Instructions Simulated (Count)
system.cpu.committedOps                     249691979                       # Number of Ops (including micro ops) Simulated (Count)
system.cpu.cpi                               1.808662                       # CPI: Cycles Per Instruction ((Cycle/Count))
system.cpu.totalCpi                          1.808662                       # CPI: Total CPI of All Threads ((Cycle/Count))
system.cpu.ipc                               0.552895                       # IPC: Instructions Per Cycle ((Count/Cycle))
system.cpu.totalIpc                          0.552895                       # IPC: Total IPC of All Threads ((Count/Cycle))
system.cpu.intRegfileReads                  173555584                       # Number of integer regfile reads (Count)
system.cpu.intRegfileWrites                 101990153                       # Number of integer regfile writes (Count)
system.cpu.fpRegfileReads                   200384696                       # Number of floating regfile reads (Count)
system.cpu.fpRegfileWrites                  125915254                       # Number of floating regfile writes (Count)
system.cpu.miscRegfileReads                 391350642                       # number of misc regfile reads (Count)
system.cpu.miscRegfileWrites                126877788                       # number of misc regfile writes (Count)
system.cpu.MemDepUnit__0.insertedLoads       43120813                       # Number of loads inserted to the mem dependence unit. (Count)
system.cpu.MemDepUnit__0.insertedStores      10541721                       # Number of stores inserted to the mem dependence unit. (Count)
system.cpu.MemDepUnit__0.conflictingLoads      9449614                       # Number of conflicting loads. (Count)
system.cpu.MemDepUnit__0.conflictingStores      6298936                       # Number of conflicting stores. (Count)
system.cpu.MemDepUnit__1.insertedLoads              0                       # Number of loads inserted to the mem dependence unit. (Count)
system.cpu.MemDepUnit__1.insertedStores             0                       # Number of stores inserted to the mem dependence unit. (Count)
system.cpu.MemDepUnit__1.conflictingLoads            0                       # Number of conflicting loads. (Count)
system.cpu.MemDepUnit__1.conflictingStores            0                       # Number of conflicting stores. (Count)
system.cpu.MemDepUnit__2.insertedLoads              0                       # Number of loads inserted to the mem dependence unit. (Count)
system.cpu.MemDepUnit__2.insertedStores             0                       # Number of stores inserted to the mem dependence unit. (Count)
system.cpu.MemDepUnit__2.conflictingLoads            0                       # Number of conflicting loads. (Count)
system.cpu.MemDepUnit__2.conflictingStores            0                       # Number of conflicting stores. (Count)
system.cpu.MemDepUnit__3.insertedLoads              0                       # Number of loads inserted to the mem dependence unit. (Count)
system.cpu.MemDepUnit__3.insertedStores             0                       # Number of stores inserted to the mem dependence unit. (Count)
system.cpu.MemDepUnit__3.conflictingLoads            0                       # Number of conflicting loads. (Count)
system.cpu.MemDepUnit__3.conflictingStores            0                       # Number of conflicting stores. (Count)
system.cpu.branchPred.lookups                15799463                       # Number of BP lookups (Count)
system.cpu.branchPred.condPredicted           7388882                       # Number of conditional branches predicted (Count)
system.cpu.branchPred.condIncorrect              1550                       # Number of conditional branches incorrect (Count)
system.cpu.branchPred.BTBLookups             11589341                       # Number of BTB lookups (Count)
system.cpu.branchPred.BTBHits                11587742                       # Number of BTB hits (Count)
system.cpu.branchPred.BTBHitRatio            0.999862                       # BTB Hit Ratio (Ratio)
system.cpu.branchPred.RASUsed                 4203772                       # Number of times the RAS was used to get a target. (Count)
system.cpu.branchPred.RASIncorrect                  8                       # Number of incorrect RAS predictions. (Count)
system.cpu.branchPred.indirectLookups             374                       # Number of indirect predictor lookups. (Count)
system.cpu.branchPred.indirectHits                 54                       # Number of indirect target hits. (Count)
system.cpu.branchPred.indirectMisses              320                       # Number of indirect misses. (Count)
system.cpu.branchPred.indirectMispredicted          104                       # Number of mispredicted indirect branches. (Count)
system.cpu.commit.commitSquashedInsts          465325                       # The number of squashed insts skipped by commit (Count)
system.cpu.commit.commitNonSpecStalls             273                       # The number of times commit has been forced to stall to communicate backwards (Count)
system.cpu.commit.branchMispredicts              1131                       # The number of times a branch was mispredicted (Count)
system.cpu.commit.numCommittedDist::samples    451465100                       # Number of insts commited each cycle (Count)
system.cpu.commit.numCommittedDist::mean     0.553070                       # Number of insts commited each cycle (Count)
system.cpu.commit.numCommittedDist::stdev     1.384691                       # Number of insts commited each cycle (Count)
system.cpu.commit.numCommittedDist::underflows            0      0.00%      0.00% # Number of insts commited each cycle (Count)
system.cpu.commit.numCommittedDist::0       333994619     73.98%     73.98% # Number of insts commited each cycle (Count)
system.cpu.commit.numCommittedDist::1        65671890     14.55%     88.53% # Number of insts commited each cycle (Count)
system.cpu.commit.numCommittedDist::2        30816823      6.83%     95.35% # Number of insts commited each cycle (Count)
system.cpu.commit.numCommittedDist::3         5001441      1.11%     96.46% # Number of insts commited each cycle (Count)
system.cpu.commit.numCommittedDist::4         3780838      0.84%     97.30% # Number of insts commited each cycle (Count)
system.cpu.commit.numCommittedDist::5         1426646      0.32%     97.61% # Number of insts commited each cycle (Count)
system.cpu.commit.numCommittedDist::6            3760      0.00%     97.61% # Number of insts commited each cycle (Count)
system.cpu.commit.numCommittedDist::7         1049686      0.23%     97.85% # Number of insts commited each cycle (Count)
system.cpu.commit.numCommittedDist::8         9719397      2.15%    100.00% # Number of insts commited each cycle (Count)
system.cpu.commit.numCommittedDist::overflows            0      0.00%    100.00% # Number of insts commited each cycle (Count)
system.cpu.commit.numCommittedDist::min_value            0                       # Number of insts commited each cycle (Count)
system.cpu.commit.numCommittedDist::max_value            8                       # Number of insts commited each cycle (Count)
system.cpu.commit.numCommittedDist::total    451465100                       # Number of insts commited each cycle (Count)
system.cpu.commit.instsCommitted            249691918                       # Number of instructions committed (Count)
system.cpu.commit.opsCommitted              249691979                       # Number of ops (including micro ops) committed (Count)
system.cpu.commit.memRefs                    53529676                       # Number of memory references committed (Count)
system.cpu.commit.loads                      43021278                       # Number of loads committed (Count)
system.cpu.commit.amos                             67                       # Number of atomic instructions committed (Count)
system.cpu.commit.membars                         111                       # Number of memory barriers committed (Count)
system.cpu.commit.branches                   15749258                       # Number of branches committed (Count)
system.cpu.commit.vectorInstructions                0                       # Number of committed Vector instructions. (Count)
system.cpu.commit.floating                  143655066                       # Number of committed floating point instructions. (Count)
system.cpu.commit.integer                   158465440                       # Number of committed integer instructions. (Count)
system.cpu.commit.functionCalls               4194785                       # Number of function calls committed. (Count)
system.cpu.commit.committedInstType_0::No_OpClass          120      0.00%      0.00% # Class of committed instruction (Count)
system.cpu.commit.committedInstType_0::IntAlu     69284231     27.75%     27.75% # Class of committed instruction (Count)
system.cpu.commit.committedInstType_0::IntMult           46      0.00%     27.75% # Class of committed instruction (Count)
system.cpu.commit.committedInstType_0::IntDiv          118      0.00%     27.75% # Class of committed instruction (Count)
system.cpu.commit.committedInstType_0::FloatAdd     28311570     11.34%     39.09% # Class of committed instruction (Count)
system.cpu.commit.committedInstType_0::FloatCmp            6      0.00%     39.09% # Class of committed instruction (Count)
system.cpu.commit.committedInstType_0::FloatCvt     35651617     14.28%     53.36% # Class of committed instruction (Count)
system.cpu.commit.committedInstType_0::FloatMult     56623129     22.68%     76.04% # Class of committed instruction (Count)
system.cpu.commit.committedInstType_0::FloatMultAcc            0      0.00%     76.04% # Class of committed instruction (Count)
system.cpu.commit.committedInstType_0::FloatDiv            0      0.00%     76.04% # Class of committed instruction (Count)
system.cpu.commit.committedInstType_0::FloatMisc      6291466      2.52%     78.56% # Class of committed instruction (Count)
system.cpu.commit.committedInstType_0::FloatSqrt            0      0.00%     78.56% # Class of committed instruction (Count)
system.cpu.commit.committedInstType_0::SimdAdd            0      0.00%     78.56% # Class of committed instruction (Count)
system.cpu.commit.committedInstType_0::SimdAddAcc            0      0.00%     78.56% # Class of committed instruction (Count)
system.cpu.commit.committedInstType_0::SimdAlu            0      0.00%     78.56% # Class of committed instruction (Count)
system.cpu.commit.committedInstType_0::SimdCmp            0      0.00%     78.56% # Class of committed instruction (Count)
system.cpu.commit.committedInstType_0::SimdCvt            0      0.00%     78.56% # Class of committed instruction (Count)
system.cpu.commit.committedInstType_0::SimdMisc            0      0.00%     78.56% # Class of committed instruction (Count)
system.cpu.commit.committedInstType_0::SimdMult            0      0.00%     78.56% # Class of committed instruction (Count)
system.cpu.commit.committedInstType_0::SimdMultAcc            0      0.00%     78.56% # Class of committed instruction (Count)
system.cpu.commit.committedInstType_0::SimdShift            0      0.00%     78.56% # Class of committed instruction (Count)
system.cpu.commit.committedInstType_0::SimdShiftAcc            0      0.00%     78.56% # Class of committed instruction (Count)
system.cpu.commit.committedInstType_0::SimdDiv            0      0.00%     78.56% # Class of committed instruction (Count)
system.cpu.commit.committedInstType_0::SimdSqrt            0      0.00%     78.56% # Class of committed instruction (Count)
system.cpu.commit.committedInstType_0::SimdFloatAdd            0      0.00%     78.56% # Class of committed instruction (Count)
system.cpu.commit.committedInstType_0::SimdFloatAlu            0      0.00%     78.56% # Class of committed instruction (Count)
system.cpu.commit.committedInstType_0::SimdFloatCmp            0      0.00%     78.56% # Class of committed instruction (Count)
system.cpu.commit.committedInstType_0::SimdFloatCvt            0      0.00%     78.56% # Class of committed instruction (Count)
system.cpu.commit.committedInstType_0::SimdFloatDiv            0      0.00%     78.56% # Class of committed instruction (Count)
system.cpu.commit.committedInstType_0::SimdFloatMisc            0      0.00%     78.56% # Class of committed instruction (Count)
system.cpu.commit.committedInstType_0::SimdFloatMult            0      0.00%     78.56% # Class of committed instruction (Count)
system.cpu.commit.committedInstType_0::SimdFloatMultAcc            0      0.00%     78.56% # Class of committed instruction (Count)
system.cpu.commit.committedInstType_0::SimdFloatSqrt            0      0.00%     78.56% # Class of committed instruction (Count)
system.cpu.commit.committedInstType_0::SimdReduceAdd            0      0.00%     78.56% # Class of committed instruction (Count)
system.cpu.commit.committedInstType_0::SimdReduceAlu            0      0.00%     78.56% # Class of committed instruction (Count)
system.cpu.commit.committedInstType_0::SimdReduceCmp            0      0.00%     78.56% # Class of committed instruction (Count)
system.cpu.commit.committedInstType_0::SimdFloatReduceAdd            0      0.00%     78.56% # Class of committed instruction (Count)
system.cpu.commit.committedInstType_0::SimdFloatReduceCmp            0      0.00%     78.56% # Class of committed instruction (Count)
system.cpu.commit.committedInstType_0::SimdAes            0      0.00%     78.56% # Class of committed instruction (Count)
system.cpu.commit.committedInstType_0::SimdAesMix            0      0.00%     78.56% # Class of committed instruction (Count)
system.cpu.commit.committedInstType_0::SimdSha1Hash            0      0.00%     78.56% # Class of committed instruction (Count)
system.cpu.commit.committedInstType_0::SimdSha1Hash2            0      0.00%     78.56% # Class of committed instruction (Count)
system.cpu.commit.committedInstType_0::SimdSha256Hash            0      0.00%     78.56% # Class of committed instruction (Count)
system.cpu.commit.committedInstType_0::SimdSha256Hash2            0      0.00%     78.56% # Class of committed instruction (Count)
system.cpu.commit.committedInstType_0::SimdShaSigma2            0      0.00%     78.56% # Class of committed instruction (Count)
system.cpu.commit.committedInstType_0::SimdShaSigma3            0      0.00%     78.56% # Class of committed instruction (Count)
system.cpu.commit.committedInstType_0::SimdPredAlu            0      0.00%     78.56% # Class of committed instruction (Count)
system.cpu.commit.committedInstType_0::MemRead     26244102     10.51%     89.07% # Class of committed instruction (Count)
system.cpu.commit.committedInstType_0::MemWrite     10508296      4.21%     93.28% # Class of committed instruction (Count)
system.cpu.commit.committedInstType_0::FloatMemRead     16777243      6.72%    100.00% # Class of committed instruction (Count)
system.cpu.commit.committedInstType_0::FloatMemWrite           35      0.00%    100.00% # Class of committed instruction (Count)
system.cpu.commit.committedInstType_0::IprAccess            0      0.00%    100.00% # Class of committed instruction (Count)
system.cpu.commit.committedInstType_0::InstPrefetch            0      0.00%    100.00% # Class of committed instruction (Count)
system.cpu.commit.committedInstType_0::total    249691979                       # Class of committed instruction (Count)
system.cpu.commit.commitEligibleSamples       9719397                       # number cycles where commit BW limit reached (Cycle)
system.cpu.dcache.demandHits::cpu.data       45842131                       # number of demand (read+write) hits (Count)
system.cpu.dcache.demandHits::total          45842131                       # number of demand (read+write) hits (Count)
system.cpu.dcache.overallHits::cpu.data      45842131                       # number of overall hits (Count)
system.cpu.dcache.overallHits::total         45842131                       # number of overall hits (Count)
system.cpu.dcache.demandMisses::cpu.data      7690417                       # number of demand (read+write) misses (Count)
system.cpu.dcache.demandMisses::total         7690417                       # number of demand (read+write) misses (Count)
system.cpu.dcache.overallMisses::cpu.data      7690417                       # number of overall misses (Count)
system.cpu.dcache.overallMisses::total        7690417                       # number of overall misses (Count)
system.cpu.dcache.demandMissLatency::cpu.data 503444883093                       # number of demand (read+write) miss ticks (Tick)
system.cpu.dcache.demandMissLatency::total 503444883093                       # number of demand (read+write) miss ticks (Tick)
system.cpu.dcache.overallMissLatency::cpu.data 503444883093                       # number of overall miss ticks (Tick)
system.cpu.dcache.overallMissLatency::total 503444883093                       # number of overall miss ticks (Tick)
system.cpu.dcache.demandAccesses::cpu.data     53532548                       # number of demand (read+write) accesses (Count)
system.cpu.dcache.demandAccesses::total      53532548                       # number of demand (read+write) accesses (Count)
system.cpu.dcache.overallAccesses::cpu.data     53532548                       # number of overall (read+write) accesses (Count)
system.cpu.dcache.overallAccesses::total     53532548                       # number of overall (read+write) accesses (Count)
system.cpu.dcache.demandMissRate::cpu.data     0.143659                       # miss rate for demand accesses (Ratio)
system.cpu.dcache.demandMissRate::total      0.143659                       # miss rate for demand accesses (Ratio)
system.cpu.dcache.overallMissRate::cpu.data     0.143659                       # miss rate for overall accesses (Ratio)
system.cpu.dcache.overallMissRate::total     0.143659                       # miss rate for overall accesses (Ratio)
system.cpu.dcache.demandAvgMissLatency::cpu.data 65463.925180                       # average overall miss latency in ticks ((Tick/Count))
system.cpu.dcache.demandAvgMissLatency::total 65463.925180                       # average overall miss latency in ticks ((Tick/Count))
system.cpu.dcache.overallAvgMissLatency::cpu.data 65463.925180                       # average overall miss latency ((Tick/Count))
system.cpu.dcache.overallAvgMissLatency::total 65463.925180                       # average overall miss latency ((Tick/Count))
system.cpu.dcache.blockedCycles::no_mshrs     23881559                       # number of cycles access was blocked (Cycle)
system.cpu.dcache.blockedCycles::no_targets            0                       # number of cycles access was blocked (Cycle)
system.cpu.dcache.blockedCauses::no_mshrs      1099266                       # number of times access was blocked (Count)
system.cpu.dcache.blockedCauses::no_targets            0                       # number of times access was blocked (Count)
system.cpu.dcache.avgBlocked::no_mshrs      21.725005                       # average number of cycles each access was blocked ((Cycle/Count))
system.cpu.dcache.avgBlocked::no_targets          nan                       # average number of cycles each access was blocked ((Cycle/Count))
system.cpu.dcache.writebacks::writebacks      1943802                       # number of writebacks (Count)
system.cpu.dcache.writebacks::total           1943802                       # number of writebacks (Count)
system.cpu.dcache.demandMshrHits::cpu.data      4963730                       # number of demand (read+write) MSHR hits (Count)
system.cpu.dcache.demandMshrHits::total       4963730                       # number of demand (read+write) MSHR hits (Count)
system.cpu.dcache.overallMshrHits::cpu.data      4963730                       # number of overall MSHR hits (Count)
system.cpu.dcache.overallMshrHits::total      4963730                       # number of overall MSHR hits (Count)
system.cpu.dcache.demandMshrMisses::cpu.data      2726687                       # number of demand (read+write) MSHR misses (Count)
system.cpu.dcache.demandMshrMisses::total      2726687                       # number of demand (read+write) MSHR misses (Count)
system.cpu.dcache.overallMshrMisses::cpu.data      2726687                       # number of overall MSHR misses (Count)
system.cpu.dcache.overallMshrMisses::total      2726687                       # number of overall MSHR misses (Count)
system.cpu.dcache.demandMshrMissLatency::cpu.data 136050336398                       # number of demand (read+write) MSHR miss ticks (Tick)
system.cpu.dcache.demandMshrMissLatency::total 136050336398                       # number of demand (read+write) MSHR miss ticks (Tick)
system.cpu.dcache.overallMshrMissLatency::cpu.data 136050336398                       # number of overall MSHR miss ticks (Tick)
system.cpu.dcache.overallMshrMissLatency::total 136050336398                       # number of overall MSHR miss ticks (Tick)
system.cpu.dcache.demandMshrMissRate::cpu.data     0.050935                       # mshr miss ratio for demand accesses (Ratio)
system.cpu.dcache.demandMshrMissRate::total     0.050935                       # mshr miss ratio for demand accesses (Ratio)
system.cpu.dcache.overallMshrMissRate::cpu.data     0.050935                       # mshr miss ratio for overall accesses (Ratio)
system.cpu.dcache.overallMshrMissRate::total     0.050935                       # mshr miss ratio for overall accesses (Ratio)
system.cpu.dcache.demandAvgMshrMissLatency::cpu.data 49895.839309                       # average overall mshr miss latency ((Tick/Count))
system.cpu.dcache.demandAvgMshrMissLatency::total 49895.839309                       # average overall mshr miss latency ((Tick/Count))
system.cpu.dcache.overallAvgMshrMissLatency::cpu.data 49895.839309                       # average overall mshr miss latency ((Tick/Count))
system.cpu.dcache.overallAvgMshrMissLatency::total 49895.839309                       # average overall mshr miss latency ((Tick/Count))
system.cpu.dcache.replacements                2726180                       # number of replacements (Count)
system.cpu.dcache.LoadLockedReq.hits::cpu.data           42                       # number of LoadLockedReq hits (Count)
system.cpu.dcache.LoadLockedReq.hits::total           42                       # number of LoadLockedReq hits (Count)
system.cpu.dcache.LoadLockedReq.misses::cpu.data           20                       # number of LoadLockedReq misses (Count)
system.cpu.dcache.LoadLockedReq.misses::total           20                       # number of LoadLockedReq misses (Count)
system.cpu.dcache.LoadLockedReq.missLatency::cpu.data      1976688                       # number of LoadLockedReq miss ticks (Tick)
system.cpu.dcache.LoadLockedReq.missLatency::total      1976688                       # number of LoadLockedReq miss ticks (Tick)
system.cpu.dcache.LoadLockedReq.accesses::cpu.data           62                       # number of LoadLockedReq accesses(hits+misses) (Count)
system.cpu.dcache.LoadLockedReq.accesses::total           62                       # number of LoadLockedReq accesses(hits+misses) (Count)
system.cpu.dcache.LoadLockedReq.missRate::cpu.data     0.322581                       # miss rate for LoadLockedReq accesses (Ratio)
system.cpu.dcache.LoadLockedReq.missRate::total     0.322581                       # miss rate for LoadLockedReq accesses (Ratio)
system.cpu.dcache.LoadLockedReq.avgMissLatency::cpu.data 98834.400000                       # average LoadLockedReq miss latency ((Tick/Count))
system.cpu.dcache.LoadLockedReq.avgMissLatency::total 98834.400000                       # average LoadLockedReq miss latency ((Tick/Count))
system.cpu.dcache.LoadLockedReq.mshrHits::cpu.data           16                       # number of LoadLockedReq MSHR hits (Count)
system.cpu.dcache.LoadLockedReq.mshrHits::total           16                       # number of LoadLockedReq MSHR hits (Count)
system.cpu.dcache.LoadLockedReq.mshrMisses::cpu.data            4                       # number of LoadLockedReq MSHR misses (Count)
system.cpu.dcache.LoadLockedReq.mshrMisses::total            4                       # number of LoadLockedReq MSHR misses (Count)
system.cpu.dcache.LoadLockedReq.mshrMissLatency::cpu.data       387279                       # number of LoadLockedReq MSHR miss ticks (Tick)
system.cpu.dcache.LoadLockedReq.mshrMissLatency::total       387279                       # number of LoadLockedReq MSHR miss ticks (Tick)
system.cpu.dcache.LoadLockedReq.mshrMissRate::cpu.data     0.064516                       # mshr miss rate for LoadLockedReq accesses (Ratio)
system.cpu.dcache.LoadLockedReq.mshrMissRate::total     0.064516                       # mshr miss rate for LoadLockedReq accesses (Ratio)
system.cpu.dcache.LoadLockedReq.avgMshrMissLatency::cpu.data 96819.750000                       # average LoadLockedReq mshr miss latency ((Tick/Count))
system.cpu.dcache.LoadLockedReq.avgMshrMissLatency::total 96819.750000                       # average LoadLockedReq mshr miss latency ((Tick/Count))
system.cpu.dcache.ReadReq.hits::cpu.data     37324987                       # number of ReadReq hits (Count)
system.cpu.dcache.ReadReq.hits::total        37324987                       # number of ReadReq hits (Count)
system.cpu.dcache.ReadReq.misses::cpu.data      5699282                       # number of ReadReq misses (Count)
system.cpu.dcache.ReadReq.misses::total       5699282                       # number of ReadReq misses (Count)
system.cpu.dcache.ReadReq.missLatency::cpu.data 430700125077                       # number of ReadReq miss ticks (Tick)
system.cpu.dcache.ReadReq.missLatency::total 430700125077                       # number of ReadReq miss ticks (Tick)
system.cpu.dcache.ReadReq.accesses::cpu.data     43024269                       # number of ReadReq accesses(hits+misses) (Count)
system.cpu.dcache.ReadReq.accesses::total     43024269                       # number of ReadReq accesses(hits+misses) (Count)
system.cpu.dcache.ReadReq.missRate::cpu.data     0.132467                       # miss rate for ReadReq accesses (Ratio)
system.cpu.dcache.ReadReq.missRate::total     0.132467                       # miss rate for ReadReq accesses (Ratio)
system.cpu.dcache.ReadReq.avgMissLatency::cpu.data 75570.944740                       # average ReadReq miss latency ((Tick/Count))
system.cpu.dcache.ReadReq.avgMissLatency::total 75570.944740                       # average ReadReq miss latency ((Tick/Count))
system.cpu.dcache.ReadReq.mshrHits::cpu.data      4778005                       # number of ReadReq MSHR hits (Count)
system.cpu.dcache.ReadReq.mshrHits::total      4778005                       # number of ReadReq MSHR hits (Count)
system.cpu.dcache.ReadReq.mshrMisses::cpu.data       921277                       # number of ReadReq MSHR misses (Count)
system.cpu.dcache.ReadReq.mshrMisses::total       921277                       # number of ReadReq MSHR misses (Count)
system.cpu.dcache.ReadReq.mshrMissLatency::cpu.data  69408015840                       # number of ReadReq MSHR miss ticks (Tick)
system.cpu.dcache.ReadReq.mshrMissLatency::total  69408015840                       # number of ReadReq MSHR miss ticks (Tick)
system.cpu.dcache.ReadReq.mshrMissRate::cpu.data     0.021413                       # mshr miss rate for ReadReq accesses (Ratio)
system.cpu.dcache.ReadReq.mshrMissRate::total     0.021413                       # mshr miss rate for ReadReq accesses (Ratio)
system.cpu.dcache.ReadReq.avgMshrMissLatency::cpu.data 75338.921779                       # average ReadReq mshr miss latency ((Tick/Count))
system.cpu.dcache.ReadReq.avgMshrMissLatency::total 75338.921779                       # average ReadReq mshr miss latency ((Tick/Count))
system.cpu.dcache.StoreCondReq.hits::cpu.data           52                       # number of StoreCondReq hits (Count)
system.cpu.dcache.StoreCondReq.hits::total           52                       # number of StoreCondReq hits (Count)
system.cpu.dcache.StoreCondReq.accesses::cpu.data           52                       # number of StoreCondReq accesses(hits+misses) (Count)
system.cpu.dcache.StoreCondReq.accesses::total           52                       # number of StoreCondReq accesses(hits+misses) (Count)
system.cpu.dcache.SwapReq.hits::cpu.data           66                       # number of SwapReq hits (Count)
system.cpu.dcache.SwapReq.hits::total              66                       # number of SwapReq hits (Count)
system.cpu.dcache.SwapReq.misses::cpu.data            1                       # number of SwapReq misses (Count)
system.cpu.dcache.SwapReq.misses::total             1                       # number of SwapReq misses (Count)
system.cpu.dcache.SwapReq.missLatency::cpu.data       105894                       # number of SwapReq miss ticks (Tick)
system.cpu.dcache.SwapReq.missLatency::total       105894                       # number of SwapReq miss ticks (Tick)
system.cpu.dcache.SwapReq.accesses::cpu.data           67                       # number of SwapReq accesses(hits+misses) (Count)
system.cpu.dcache.SwapReq.accesses::total           67                       # number of SwapReq accesses(hits+misses) (Count)
system.cpu.dcache.SwapReq.missRate::cpu.data     0.014925                       # miss rate for SwapReq accesses (Ratio)
system.cpu.dcache.SwapReq.missRate::total     0.014925                       # miss rate for SwapReq accesses (Ratio)
system.cpu.dcache.SwapReq.avgMissLatency::cpu.data       105894                       # average SwapReq miss latency ((Tick/Count))
system.cpu.dcache.SwapReq.avgMissLatency::total       105894                       # average SwapReq miss latency ((Tick/Count))
system.cpu.dcache.SwapReq.mshrMisses::cpu.data            1                       # number of SwapReq MSHR misses (Count)
system.cpu.dcache.SwapReq.mshrMisses::total            1                       # number of SwapReq MSHR misses (Count)
system.cpu.dcache.SwapReq.mshrMissLatency::cpu.data       105228                       # number of SwapReq MSHR miss ticks (Tick)
system.cpu.dcache.SwapReq.mshrMissLatency::total       105228                       # number of SwapReq MSHR miss ticks (Tick)
system.cpu.dcache.SwapReq.mshrMissRate::cpu.data     0.014925                       # mshr miss rate for SwapReq accesses (Ratio)
system.cpu.dcache.SwapReq.mshrMissRate::total     0.014925                       # mshr miss rate for SwapReq accesses (Ratio)
system.cpu.dcache.SwapReq.avgMshrMissLatency::cpu.data       105228                       # average SwapReq mshr miss latency ((Tick/Count))
system.cpu.dcache.SwapReq.avgMshrMissLatency::total       105228                       # average SwapReq mshr miss latency ((Tick/Count))
system.cpu.dcache.WriteReq.hits::cpu.data      8517144                       # number of WriteReq hits (Count)
system.cpu.dcache.WriteReq.hits::total        8517144                       # number of WriteReq hits (Count)
system.cpu.dcache.WriteReq.misses::cpu.data      1991135                       # number of WriteReq misses (Count)
system.cpu.dcache.WriteReq.misses::total      1991135                       # number of WriteReq misses (Count)
system.cpu.dcache.WriteReq.missLatency::cpu.data  72744758016                       # number of WriteReq miss ticks (Tick)
system.cpu.dcache.WriteReq.missLatency::total  72744758016                       # number of WriteReq miss ticks (Tick)
system.cpu.dcache.WriteReq.accesses::cpu.data     10508279                       # number of WriteReq accesses(hits+misses) (Count)
system.cpu.dcache.WriteReq.accesses::total     10508279                       # number of WriteReq accesses(hits+misses) (Count)
system.cpu.dcache.WriteReq.missRate::cpu.data     0.189483                       # miss rate for WriteReq accesses (Ratio)
system.cpu.dcache.WriteReq.missRate::total     0.189483                       # miss rate for WriteReq accesses (Ratio)
system.cpu.dcache.WriteReq.avgMissLatency::cpu.data 36534.317370                       # average WriteReq miss latency ((Tick/Count))
system.cpu.dcache.WriteReq.avgMissLatency::total 36534.317370                       # average WriteReq miss latency ((Tick/Count))
system.cpu.dcache.WriteReq.mshrHits::cpu.data       185725                       # number of WriteReq MSHR hits (Count)
system.cpu.dcache.WriteReq.mshrHits::total       185725                       # number of WriteReq MSHR hits (Count)
system.cpu.dcache.WriteReq.mshrMisses::cpu.data      1805410                       # number of WriteReq MSHR misses (Count)
system.cpu.dcache.WriteReq.mshrMisses::total      1805410                       # number of WriteReq MSHR misses (Count)
system.cpu.dcache.WriteReq.mshrMissLatency::cpu.data  66642320558                       # number of WriteReq MSHR miss ticks (Tick)
system.cpu.dcache.WriteReq.mshrMissLatency::total  66642320558                       # number of WriteReq MSHR miss ticks (Tick)
system.cpu.dcache.WriteReq.mshrMissRate::cpu.data     0.171808                       # mshr miss rate for WriteReq accesses (Ratio)
system.cpu.dcache.WriteReq.mshrMissRate::total     0.171808                       # mshr miss rate for WriteReq accesses (Ratio)
system.cpu.dcache.WriteReq.avgMshrMissLatency::cpu.data 36912.568645                       # average WriteReq mshr miss latency ((Tick/Count))
system.cpu.dcache.WriteReq.avgMshrMissLatency::total 36912.568645                       # average WriteReq mshr miss latency ((Tick/Count))
system.cpu.dcache.power_state.pwrStateResidencyTicks::UNDEFINED 150385593204                       # Cumulative time (in ticks) in various power states (Tick)
system.cpu.dcache.tags.tagsInUse           511.750683                       # Average ticks per tags in use ((Tick/Count))
system.cpu.dcache.tags.totalRefs             48568983                       # Total number of references to valid blocks. (Count)
system.cpu.dcache.tags.sampledRefs            2726692                       # Sample count of references to valid blocks. (Count)
system.cpu.dcache.tags.avgRefs              17.812420                       # Average number of references to valid blocks. ((Count/Count))
system.cpu.dcache.tags.warmupTick              268065                       # The tick when the warmup percentage was hit. (Tick)
system.cpu.dcache.tags.occupancies::cpu.data   511.750683                       # Average occupied blocks per tick, per requestor ((Count/Tick))
system.cpu.dcache.tags.avgOccs::cpu.data     0.999513                       # Average percentage of cache occupancy ((Ratio/Tick))
system.cpu.dcache.tags.avgOccs::total        0.999513                       # Average percentage of cache occupancy ((Ratio/Tick))
system.cpu.dcache.tags.occupanciesTaskId::1024          512                       # Occupied blocks per task id (Count)
system.cpu.dcache.tags.ageTaskId_1024::0           53                       # Occupied blocks per task id, per block age (Count)
system.cpu.dcache.tags.ageTaskId_1024::1          450                       # Occupied blocks per task id, per block age (Count)
system.cpu.dcache.tags.ageTaskId_1024::4            9                       # Occupied blocks per task id, per block age (Count)
system.cpu.dcache.tags.ratioOccsTaskId::1024            1                       # Ratio of occupied blocks and all blocks, per task id (Ratio)
system.cpu.dcache.tags.tagAccesses          430988524                       # Number of tag accesses (Count)
system.cpu.dcache.tags.dataAccesses         430988524                       # Number of data accesses (Count)
system.cpu.dcache.tags.power_state.pwrStateResidencyTicks::UNDEFINED 150385593204                       # Cumulative time (in ticks) in various power states (Tick)
system.cpu.decode.idleCycles                  8831810                       # Number of cycles decode is idle (Cycle)
system.cpu.decode.blockedCycles             411391627                       # Number of cycles decode is blocked (Cycle)
system.cpu.decode.runCycles                   2768466                       # Number of cycles decode is running (Cycle)
system.cpu.decode.unblockCycles              28528719                       # Number of cycles decode is unblocking (Cycle)
system.cpu.decode.squashCycles                   5389                       # Number of cycles decode is squashing (Cycle)
system.cpu.decode.branchResolved             11579531                       # Number of times decode resolved a branch (Count)
system.cpu.decode.branchMispred                   466                       # Number of times decode detected a branch misprediction (Count)
system.cpu.decode.decodedInsts              250240212                       # Number of instructions handled by decode (Count)
system.cpu.decode.squashedInsts                  1647                       # Number of squashed instructions handled by decode (Count)
system.cpu.dtb_walker_cache.blockedCycles::no_mshrs            0                       # number of cycles access was blocked (Cycle)
system.cpu.dtb_walker_cache.blockedCycles::no_targets            0                       # number of cycles access was blocked (Cycle)
system.cpu.dtb_walker_cache.blockedCauses::no_mshrs            0                       # number of times access was blocked (Count)
system.cpu.dtb_walker_cache.blockedCauses::no_targets            0                       # number of times access was blocked (Count)
system.cpu.dtb_walker_cache.avgBlocked::no_mshrs          nan                       # average number of cycles each access was blocked ((Cycle/Count))
system.cpu.dtb_walker_cache.avgBlocked::no_targets          nan                       # average number of cycles each access was blocked ((Cycle/Count))
system.cpu.dtb_walker_cache.replacements            0                       # number of replacements (Count)
system.cpu.dtb_walker_cache.power_state.pwrStateResidencyTicks::UNDEFINED 150385593204                       # Cumulative time (in ticks) in various power states (Tick)
system.cpu.dtb_walker_cache.tags.tagsInUse            0                       # Average ticks per tags in use ((Tick/Count))
system.cpu.dtb_walker_cache.tags.totalRefs            0                       # Total number of references to valid blocks. (Count)
system.cpu.dtb_walker_cache.tags.sampledRefs            0                       # Sample count of references to valid blocks. (Count)
system.cpu.dtb_walker_cache.tags.avgRefs          nan                       # Average number of references to valid blocks. ((Count/Count))
system.cpu.dtb_walker_cache.tags.warmupTick            0                       # The tick when the warmup percentage was hit. (Tick)
system.cpu.dtb_walker_cache.tags.tagAccesses            0                       # Number of tag accesses (Count)
system.cpu.dtb_walker_cache.tags.dataAccesses            0                       # Number of data accesses (Count)
system.cpu.dtb_walker_cache.tags.power_state.pwrStateResidencyTicks::UNDEFINED 150385593204                       # Cumulative time (in ticks) in various power states (Tick)
system.cpu.fetch.icacheStallCycles           25246403                       # Number of cycles fetch is stalled on an Icache miss (Cycle)
system.cpu.fetch.insts                      250430167                       # Number of instructions fetch has processed (Count)
system.cpu.fetch.branches                    15799463                       # Number of branches that fetch encountered (Count)
system.cpu.fetch.predictedBranches           15791568                       # Number of branches that fetch has predicted taken (Count)
system.cpu.fetch.cycles                     426273427                       # Number of cycles fetch has run and was not squashing or blocked (Cycle)
system.cpu.fetch.squashCycles                   11678                       # Number of cycles fetch has spent squashing (Cycle)
system.cpu.fetch.miscStallCycles                   61                       # Number of cycles fetch has spent waiting on interrupts, or bad addresses, or out of MSHRs (Cycle)
system.cpu.fetch.pendingTrapStallCycles           188                       # Number of stall cycles due to pending traps (Cycle)
system.cpu.fetch.icacheWaitRetryStallCycles           93                       # Number of stall cycles due to full MSHR (Cycle)
system.cpu.fetch.cacheLines                  25225107                       # Number of cache lines fetched (Count)
system.cpu.fetch.icacheSquashes                   875                       # Number of outstanding Icache misses that were squashed (Count)
system.cpu.fetch.nisnDist::samples          451526011                       # Number of instructions fetched each cycle (Total) (Count)
system.cpu.fetch.nisnDist::mean              0.554631                       # Number of instructions fetched each cycle (Total) (Count)
system.cpu.fetch.nisnDist::stdev             1.816723                       # Number of instructions fetched each cycle (Total) (Count)
system.cpu.fetch.nisnDist::underflows               0      0.00%      0.00% # Number of instructions fetched each cycle (Total) (Count)
system.cpu.fetch.nisnDist::0                404884027     89.67%     89.67% # Number of instructions fetched each cycle (Total) (Count)
system.cpu.fetch.nisnDist::1                  3658991      0.81%     90.48% # Number of instructions fetched each cycle (Total) (Count)
system.cpu.fetch.nisnDist::2                  4461132      0.99%     91.47% # Number of instructions fetched each cycle (Total) (Count)
system.cpu.fetch.nisnDist::3                  5604597      1.24%     92.71% # Number of instructions fetched each cycle (Total) (Count)
system.cpu.fetch.nisnDist::4                  3713667      0.82%     93.53% # Number of instructions fetched each cycle (Total) (Count)
system.cpu.fetch.nisnDist::5                  5130608      1.14%     94.67% # Number of instructions fetched each cycle (Total) (Count)
system.cpu.fetch.nisnDist::6                  4847941      1.07%     95.74% # Number of instructions fetched each cycle (Total) (Count)
system.cpu.fetch.nisnDist::7                  2360468      0.52%     96.26% # Number of instructions fetched each cycle (Total) (Count)
system.cpu.fetch.nisnDist::8                 16864580      3.74%    100.00% # Number of instructions fetched each cycle (Total) (Count)
system.cpu.fetch.nisnDist::overflows                0      0.00%    100.00% # Number of instructions fetched each cycle (Total) (Count)
system.cpu.fetch.nisnDist::min_value                0                       # Number of instructions fetched each cycle (Total) (Count)
system.cpu.fetch.nisnDist::max_value                8                       # Number of instructions fetched each cycle (Total) (Count)
system.cpu.fetch.nisnDist::total            451526011                       # Number of instructions fetched each cycle (Total) (Count)
system.cpu.fetch.branchRate                  0.034985                       # Number of branch fetches per cycle (Ratio)
system.cpu.fetch.rate                        0.554529                       # Number of inst fetches per cycle ((Count/Cycle))
system.cpu.icache.demandHits::cpu.inst       25224249                       # number of demand (read+write) hits (Count)
system.cpu.icache.demandHits::total          25224249                       # number of demand (read+write) hits (Count)
system.cpu.icache.overallHits::cpu.inst      25224249                       # number of overall hits (Count)
system.cpu.icache.overallHits::total         25224249                       # number of overall hits (Count)
system.cpu.icache.demandMisses::cpu.inst          857                       # number of demand (read+write) misses (Count)
system.cpu.icache.demandMisses::total             857                       # number of demand (read+write) misses (Count)
system.cpu.icache.overallMisses::cpu.inst          857                       # number of overall misses (Count)
system.cpu.icache.overallMisses::total            857                       # number of overall misses (Count)
system.cpu.icache.demandMissLatency::cpu.inst     72474451                       # number of demand (read+write) miss ticks (Tick)
system.cpu.icache.demandMissLatency::total     72474451                       # number of demand (read+write) miss ticks (Tick)
system.cpu.icache.overallMissLatency::cpu.inst     72474451                       # number of overall miss ticks (Tick)
system.cpu.icache.overallMissLatency::total     72474451                       # number of overall miss ticks (Tick)
system.cpu.icache.demandAccesses::cpu.inst     25225106                       # number of demand (read+write) accesses (Count)
system.cpu.icache.demandAccesses::total      25225106                       # number of demand (read+write) accesses (Count)
system.cpu.icache.overallAccesses::cpu.inst     25225106                       # number of overall (read+write) accesses (Count)
system.cpu.icache.overallAccesses::total     25225106                       # number of overall (read+write) accesses (Count)
system.cpu.icache.demandMissRate::cpu.inst     0.000034                       # miss rate for demand accesses (Ratio)
system.cpu.icache.demandMissRate::total      0.000034                       # miss rate for demand accesses (Ratio)
system.cpu.icache.overallMissRate::cpu.inst     0.000034                       # miss rate for overall accesses (Ratio)
system.cpu.icache.overallMissRate::total     0.000034                       # miss rate for overall accesses (Ratio)
system.cpu.icache.demandAvgMissLatency::cpu.inst 84567.620770                       # average overall miss latency in ticks ((Tick/Count))
system.cpu.icache.demandAvgMissLatency::total 84567.620770                       # average overall miss latency in ticks ((Tick/Count))
system.cpu.icache.overallAvgMissLatency::cpu.inst 84567.620770                       # average overall miss latency ((Tick/Count))
system.cpu.icache.overallAvgMissLatency::total 84567.620770                       # average overall miss latency ((Tick/Count))
system.cpu.icache.blockedCycles::no_mshrs         1290                       # number of cycles access was blocked (Cycle)
system.cpu.icache.blockedCycles::no_targets            0                       # number of cycles access was blocked (Cycle)
system.cpu.icache.blockedCauses::no_mshrs           13                       # number of times access was blocked (Count)
system.cpu.icache.blockedCauses::no_targets            0                       # number of times access was blocked (Count)
system.cpu.icache.avgBlocked::no_mshrs      99.230769                       # average number of cycles each access was blocked ((Cycle/Count))
system.cpu.icache.avgBlocked::no_targets          nan                       # average number of cycles each access was blocked ((Cycle/Count))
system.cpu.icache.writebacks::writebacks          120                       # number of writebacks (Count)
system.cpu.icache.writebacks::total               120                       # number of writebacks (Count)
system.cpu.icache.demandMshrHits::cpu.inst          256                       # number of demand (read+write) MSHR hits (Count)
system.cpu.icache.demandMshrHits::total           256                       # number of demand (read+write) MSHR hits (Count)
system.cpu.icache.overallMshrHits::cpu.inst          256                       # number of overall MSHR hits (Count)
system.cpu.icache.overallMshrHits::total          256                       # number of overall MSHR hits (Count)
system.cpu.icache.demandMshrMisses::cpu.inst          601                       # number of demand (read+write) MSHR misses (Count)
system.cpu.icache.demandMshrMisses::total          601                       # number of demand (read+write) MSHR misses (Count)
system.cpu.icache.overallMshrMisses::cpu.inst          601                       # number of overall MSHR misses (Count)
system.cpu.icache.overallMshrMisses::total          601                       # number of overall MSHR misses (Count)
system.cpu.icache.demandMshrMissLatency::cpu.inst     54469474                       # number of demand (read+write) MSHR miss ticks (Tick)
system.cpu.icache.demandMshrMissLatency::total     54469474                       # number of demand (read+write) MSHR miss ticks (Tick)
system.cpu.icache.overallMshrMissLatency::cpu.inst     54469474                       # number of overall MSHR miss ticks (Tick)
system.cpu.icache.overallMshrMissLatency::total     54469474                       # number of overall MSHR miss ticks (Tick)
system.cpu.icache.demandMshrMissRate::cpu.inst     0.000024                       # mshr miss ratio for demand accesses (Ratio)
system.cpu.icache.demandMshrMissRate::total     0.000024                       # mshr miss ratio for demand accesses (Ratio)
system.cpu.icache.overallMshrMissRate::cpu.inst     0.000024                       # mshr miss ratio for overall accesses (Ratio)
system.cpu.icache.overallMshrMissRate::total     0.000024                       # mshr miss ratio for overall accesses (Ratio)
system.cpu.icache.demandAvgMshrMissLatency::cpu.inst 90631.404326                       # average overall mshr miss latency ((Tick/Count))
system.cpu.icache.demandAvgMshrMissLatency::total 90631.404326                       # average overall mshr miss latency ((Tick/Count))
system.cpu.icache.overallAvgMshrMissLatency::cpu.inst 90631.404326                       # average overall mshr miss latency ((Tick/Count))
system.cpu.icache.overallAvgMshrMissLatency::total 90631.404326                       # average overall mshr miss latency ((Tick/Count))
system.cpu.icache.replacements                    120                       # number of replacements (Count)
system.cpu.icache.ReadReq.hits::cpu.inst     25224249                       # number of ReadReq hits (Count)
system.cpu.icache.ReadReq.hits::total        25224249                       # number of ReadReq hits (Count)
system.cpu.icache.ReadReq.misses::cpu.inst          857                       # number of ReadReq misses (Count)
system.cpu.icache.ReadReq.misses::total           857                       # number of ReadReq misses (Count)
system.cpu.icache.ReadReq.missLatency::cpu.inst     72474451                       # number of ReadReq miss ticks (Tick)
system.cpu.icache.ReadReq.missLatency::total     72474451                       # number of ReadReq miss ticks (Tick)
system.cpu.icache.ReadReq.accesses::cpu.inst     25225106                       # number of ReadReq accesses(hits+misses) (Count)
system.cpu.icache.ReadReq.accesses::total     25225106                       # number of ReadReq accesses(hits+misses) (Count)
system.cpu.icache.ReadReq.missRate::cpu.inst     0.000034                       # miss rate for ReadReq accesses (Ratio)
system.cpu.icache.ReadReq.missRate::total     0.000034                       # miss rate for ReadReq accesses (Ratio)
system.cpu.icache.ReadReq.avgMissLatency::cpu.inst 84567.620770                       # average ReadReq miss latency ((Tick/Count))
system.cpu.icache.ReadReq.avgMissLatency::total 84567.620770                       # average ReadReq miss latency ((Tick/Count))
system.cpu.icache.ReadReq.mshrHits::cpu.inst          256                       # number of ReadReq MSHR hits (Count)
system.cpu.icache.ReadReq.mshrHits::total          256                       # number of ReadReq MSHR hits (Count)
system.cpu.icache.ReadReq.mshrMisses::cpu.inst          601                       # number of ReadReq MSHR misses (Count)
system.cpu.icache.ReadReq.mshrMisses::total          601                       # number of ReadReq MSHR misses (Count)
system.cpu.icache.ReadReq.mshrMissLatency::cpu.inst     54469474                       # number of ReadReq MSHR miss ticks (Tick)
system.cpu.icache.ReadReq.mshrMissLatency::total     54469474                       # number of ReadReq MSHR miss ticks (Tick)
system.cpu.icache.ReadReq.mshrMissRate::cpu.inst     0.000024                       # mshr miss rate for ReadReq accesses (Ratio)
system.cpu.icache.ReadReq.mshrMissRate::total     0.000024                       # mshr miss rate for ReadReq accesses (Ratio)
system.cpu.icache.ReadReq.avgMshrMissLatency::cpu.inst 90631.404326                       # average ReadReq mshr miss latency ((Tick/Count))
system.cpu.icache.ReadReq.avgMshrMissLatency::total 90631.404326                       # average ReadReq mshr miss latency ((Tick/Count))
system.cpu.icache.power_state.pwrStateResidencyTicks::UNDEFINED 150385593204                       # Cumulative time (in ticks) in various power states (Tick)
system.cpu.icache.tags.tagsInUse           390.459815                       # Average ticks per tags in use ((Tick/Count))
system.cpu.icache.tags.totalRefs             25224850                       # Total number of references to valid blocks. (Count)
system.cpu.icache.tags.sampledRefs                601                       # Sample count of references to valid blocks. (Count)
system.cpu.icache.tags.avgRefs           41971.464226                       # Average number of references to valid blocks. ((Count/Count))
system.cpu.icache.tags.warmupTick               92241                       # The tick when the warmup percentage was hit. (Tick)
system.cpu.icache.tags.occupancies::cpu.inst   390.459815                       # Average occupied blocks per tick, per requestor ((Count/Tick))
system.cpu.icache.tags.avgOccs::cpu.inst     0.762617                       # Average percentage of cache occupancy ((Ratio/Tick))
system.cpu.icache.tags.avgOccs::total        0.762617                       # Average percentage of cache occupancy ((Ratio/Tick))
system.cpu.icache.tags.occupanciesTaskId::1024          481                       # Occupied blocks per task id (Count)
system.cpu.icache.tags.ageTaskId_1024::0          116                       # Occupied blocks per task id, per block age (Count)
system.cpu.icache.tags.ageTaskId_1024::1           45                       # Occupied blocks per task id, per block age (Count)
system.cpu.icache.tags.ageTaskId_1024::4          320                       # Occupied blocks per task id, per block age (Count)
system.cpu.icache.tags.ratioOccsTaskId::1024     0.939453                       # Ratio of occupied blocks and all blocks, per task id (Ratio)
system.cpu.icache.tags.tagAccesses          201801449                       # Number of tag accesses (Count)
system.cpu.icache.tags.dataAccesses         201801449                       # Number of data accesses (Count)
system.cpu.icache.tags.power_state.pwrStateResidencyTicks::UNDEFINED 150385593204                       # Cumulative time (in ticks) in various power states (Tick)
system.cpu.iew.idleCycles                           0                       # Number of cycles IEW is idle (Cycle)
system.cpu.iew.squashCycles                      5389                       # Number of cycles IEW is squashing (Cycle)
system.cpu.iew.blockCycles                  144965496                       # Number of cycles IEW is blocking (Cycle)
system.cpu.iew.unblockCycles                 16353952                       # Number of cycles IEW is unblocking (Cycle)
system.cpu.iew.dispatchedInsts              250184455                       # Number of instructions dispatched to IQ (Count)
system.cpu.iew.dispSquashedInsts                  373                       # Number of squashed instructions skipped by dispatch (Count)
system.cpu.iew.dispLoadInsts                 43120813                       # Number of dispatched load instructions (Count)
system.cpu.iew.dispStoreInsts                10541721                       # Number of dispatched store instructions (Count)
system.cpu.iew.dispNonSpecInsts                   296                       # Number of dispatched non-speculative instructions (Count)
system.cpu.iew.iqFullEvents                   6940788                       # Number of times the IQ has become full, causing a stall (Count)
system.cpu.iew.lsqFullEvents                  5789435                       # Number of times the LSQ has become full, causing a stall (Count)
system.cpu.iew.memOrderViolationEvents            127                       # Number of memory order violations (Count)
system.cpu.iew.predictedTakenIncorrect            219                       # Number of branches that were predicted taken incorrectly (Count)
system.cpu.iew.predictedNotTakenIncorrect         1066                       # Number of branches that were predicted not taken incorrectly (Count)
system.cpu.iew.branchMispredicts                 1285                       # Number of branch mispredicts detected at execute (Count)
system.cpu.iew.instsToCommit                250020008                       # Cumulative count of insts sent to commit (Count)
system.cpu.iew.writebackCount               250012179                       # Cumulative count of insts written-back (Count)
[...]
system.mem_ctrls.dram.perBankRdBursts::15        79580                       # Per bank write bursts (Count)
system.mem_ctrls.dram.perBankWrBursts::0        29524                       # Per bank write bursts (Count)
system.mem_ctrls.dram.perBankWrBursts::1        29296                       # Per bank write bursts (Count)
system.mem_ctrls.dram.perBankWrBursts::2        29851                       # Per bank write bursts (Count)
system.mem_ctrls.dram.perBankWrBursts::3        29541                       # Per bank write bursts (Count)
system.mem_ctrls.dram.perBankWrBursts::4        29445                       # Per bank write bursts (Count)
system.mem_ctrls.dram.perBankWrBursts::5        29373                       # Per bank write bursts (Count)
system.mem_ctrls.dram.perBankWrBursts::6        29420                       # Per bank write bursts (Count)
system.mem_ctrls.dram.perBankWrBursts::7        29208                       # Per bank write bursts (Count)
system.mem_ctrls.dram.perBankWrBursts::8        29195                       # Per bank write bursts (Count)
system.mem_ctrls.dram.perBankWrBursts::9        28922                       # Per bank write bursts (Count)
system.mem_ctrls.dram.perBankWrBursts::10        29051                       # Per bank write bursts (Count)
system.mem_ctrls.dram.perBankWrBursts::11        28952                       # Per bank write bursts (Count)
system.mem_ctrls.dram.perBankWrBursts::12        29350                       # Per bank write bursts (Count)
system.mem_ctrls.dram.perBankWrBursts::13        29278                       # Per bank write bursts (Count)
system.mem_ctrls.dram.perBankWrBursts::14        29994                       # Per bank write bursts (Count)
system.mem_ctrls.dram.perBankWrBursts::15        29503                       # Per bank write bursts (Count)
system.mem_ctrls.dram.totQLat             23461067899                       # Total ticks spent queuing (Tick)
system.mem_ctrls.dram.totBusLat            6351305000                       # Total ticks spent in databus transfers (Tick)
system.mem_ctrls.dram.totMemAccLat        47278461649                       # Total ticks spent from burst creation until serviced by the DRAM (Tick)
system.mem_ctrls.dram.avgQLat                18469.49                       # Average queueing delay per DRAM burst ((Tick/Count))
system.mem_ctrls.dram.avgBusLat               5000.00                       # Average bus latency per DRAM burst ((Tick/Count))
system.mem_ctrls.dram.avgMemAccLat           37219.49                       # Average memory access latency per DRAM burst ((Tick/Count))
system.mem_ctrls.dram.readRowHits              796464                       # Number of row buffer hits during reads (Count)
system.mem_ctrls.dram.writeRowHits             304562                       # Number of row buffer hits during writes (Count)
system.mem_ctrls.dram.readRowHitRate            62.70                       # Row buffer hit rate for reads (Ratio)
system.mem_ctrls.dram.writeRowHitRate           64.81                       # Row buffer hit rate for writes (Ratio)
system.mem_ctrls.dram.bytesPerActivate::samples       639128                       # Bytes accessed per row activation (Byte)
system.mem_ctrls.dram.bytesPerActivate::mean   174.250316                       # Bytes accessed per row activation (Byte)
system.mem_ctrls.dram.bytesPerActivate::gmean   100.910121                       # Bytes accessed per row activation (Byte)
system.mem_ctrls.dram.bytesPerActivate::stdev   254.759976                       # Bytes accessed per row activation (Byte)
system.mem_ctrls.dram.bytesPerActivate::0-127       468626     73.32%     73.32% # Bytes accessed per row activation (Byte)
system.mem_ctrls.dram.bytesPerActivate::128-255        63027      9.86%     83.18% # Bytes accessed per row activation (Byte)
system.mem_ctrls.dram.bytesPerActivate::256-383        22771      3.56%     86.75% # Bytes accessed per row activation (Byte)
system.mem_ctrls.dram.bytesPerActivate::384-511        14138      2.21%     88.96% # Bytes accessed per row activation (Byte)
system.mem_ctrls.dram.bytesPerActivate::512-639        10295      1.61%     90.57% # Bytes accessed per row activation (Byte)
system.mem_ctrls.dram.bytesPerActivate::640-767        10633      1.66%     92.23% # Bytes accessed per row activation (Byte)
system.mem_ctrls.dram.bytesPerActivate::768-895        13603      2.13%     94.36% # Bytes accessed per row activation (Byte)
system.mem_ctrls.dram.bytesPerActivate::896-1023         6311      0.99%     95.35% # Bytes accessed per row activation (Byte)
system.mem_ctrls.dram.bytesPerActivate::1024-1151        29724      4.65%    100.00% # Bytes accessed per row activation (Byte)
system.mem_ctrls.dram.bytesPerActivate::total       639128                       # Bytes accessed per row activation (Byte)
system.mem_ctrls.dram.bytesRead              81296704                       # Total bytes read (Byte)
system.mem_ctrls.dram.bytesWritten           30073792                       # Total bytes written (Byte)
system.mem_ctrls.dram.avgRdBW              540.588379                       # Average DRAM read bandwidth in MiBytes/s ((Byte/Second))
system.mem_ctrls.dram.avgWrBW              199.977879                       # Average DRAM write bandwidth in MiBytes/s ((Byte/Second))
system.mem_ctrls.dram.peakBW                 12800.00                       # Theoretical peak bandwidth in MiByte/s ((Byte/Second))
system.mem_ctrls.dram.busUtil                    5.79                       # Data bus utilization in percentage (Ratio)
system.mem_ctrls.dram.busUtilRead                4.22                       # Data bus utilization in percentage for reads (Ratio)
system.mem_ctrls.dram.busUtilWrite               1.56                       # Data bus utilization in percentage for writes (Ratio)
system.mem_ctrls.dram.pageHitRate               63.27                       # Row buffer hit rate, read and write combined (Ratio)
system.mem_ctrls.dram.power_state.pwrStateResidencyTicks::UNDEFINED 150385593204                       # Cumulative time (in ticks) in various power states (Tick)
system.mem_ctrls.dram.rank0.actEnergy      2278495380                       # Energy for activate commands per rank (pJ) (Joule)
system.mem_ctrls.dram.rank0.preEnergy      1211033835                       # Energy for precharge commands per rank (pJ) (Joule)
system.mem_ctrls.dram.rank0.readEnergy     4530565620                       # Energy for read commands per rank (pJ) (Joule)
system.mem_ctrls.dram.rank0.writeEnergy    1230134760                       # Energy for write commands per rank (pJ) (Joule)
system.mem_ctrls.dram.rank0.refreshEnergy 11871156960.000002                       # Energy for refresh commands per rank (pJ) (Joule)
system.mem_ctrls.dram.rank0.actBackEnergy  45145752180                       # Energy for active background per rank (pJ) (Joule)
system.mem_ctrls.dram.rank0.preBackEnergy  19730592480                       # Energy for precharge background per rank (pJ) (Joule)
system.mem_ctrls.dram.rank0.actPowerDownEnergy            0                       # Energy for active power-down per rank (pJ) (Joule)
system.mem_ctrls.dram.rank0.prePowerDownEnergy            0                       # Energy for precharge power-down per rank (pJ) (Joule)
system.mem_ctrls.dram.rank0.selfRefreshEnergy            0                       # Energy for self refresh per rank (pJ) (Joule)
system.mem_ctrls.dram.rank0.totalEnergy   85997731215                       # Total energy per rank (pJ) (Joule)
system.mem_ctrls.dram.rank0.averagePower   571.848203                       # Core power per rank (mW) (Watt)
system.mem_ctrls.dram.rank0.totalIdleTime            0                       # Total Idle time Per DRAM Rank (Tick)
system.mem_ctrls.dram.rank0.pwrStateTime::IDLE  50756384579                       # Time in different power states (Tick)
system.mem_ctrls.dram.rank0.pwrStateTime::REF   5021640000                       # Time in different power states (Tick)
system.mem_ctrls.dram.rank0.pwrStateTime::SREF            0                       # Time in different power states (Tick)
system.mem_ctrls.dram.rank0.pwrStateTime::PRE_PDN            0                       # Time in different power states (Tick)
system.mem_ctrls.dram.rank0.pwrStateTime::ACT  94607568625                       # Time in different power states (Tick)
system.mem_ctrls.dram.rank0.pwrStateTime::ACT_PDN            0                       # Time in different power states (Tick)
system.mem_ctrls.dram.rank1.actEnergy      2284949940                       # Energy for activate commands per rank (pJ) (Joule)
system.mem_ctrls.dram.rank1.preEnergy      1214456925                       # Energy for precharge commands per rank (pJ) (Joule)
system.mem_ctrls.dram.rank1.readEnergy     4539097920                       # Energy for read commands per rank (pJ) (Joule)
system.mem_ctrls.dram.rank1.writeEnergy    1222758900                       # Energy for write commands per rank (pJ) (Joule)
system.mem_ctrls.dram.rank1.refreshEnergy 11871156960.000002                       # Energy for refresh commands per rank (pJ) (Joule)
system.mem_ctrls.dram.rank1.actBackEnergy  45259027140                       # Energy for active background per rank (pJ) (Joule)
system.mem_ctrls.dram.rank1.preBackEnergy  19635203040                       # Energy for precharge background per rank (pJ) (Joule)
system.mem_ctrls.dram.rank1.actPowerDownEnergy            0                       # Energy for active power-down per rank (pJ) (Joule)
system.mem_ctrls.dram.rank1.prePowerDownEnergy            0                       # Energy for precharge power-down per rank (pJ) (Joule)
system.mem_ctrls.dram.rank1.selfRefreshEnergy            0                       # Energy for self refresh per rank (pJ) (Joule)
system.mem_ctrls.dram.rank1.totalEnergy   86026650825                       # Total energy per rank (pJ) (Joule)
system.mem_ctrls.dram.rank1.averagePower   572.040506                       # Core power per rank (mW) (Watt)
system.mem_ctrls.dram.rank1.totalIdleTime            0                       # Total Idle time Per DRAM Rank (Tick)
system.mem_ctrls.dram.rank1.pwrStateTime::IDLE  50511323548                       # Time in different power states (Tick)
system.mem_ctrls.dram.rank1.pwrStateTime::REF   5021640000                       # Time in different power states (Tick)
system.mem_ctrls.dram.rank1.pwrStateTime::SREF            0                       # Time in different power states (Tick)
system.mem_ctrls.dram.rank1.pwrStateTime::PRE_PDN            0                       # Time in different power states (Tick)
system.mem_ctrls.dram.rank1.pwrStateTime::ACT  94852629656                       # Time in different power states (Tick)
system.mem_ctrls.dram.rank1.pwrStateTime::ACT_PDN            0                       # Time in different power states (Tick)
system.mem_ctrls.power_state.pwrStateResidencyTicks::UNDEFINED 150385593204                       # Cumulative time (in ticks) in various power states (Tick)
system.membus.transDist::ReadResp              742824                       # Transaction distribution (Count)
system.membus.transDist::WritebackDirty        469920                       # Transaction distribution (Count)
system.membus.transDist::CleanEvict            684156                       # Transaction distribution (Count)
system.membus.transDist::ReadExReq             528240                       # Transaction distribution (Count)
system.membus.transDist::ReadExResp            528240                       # Transaction distribution (Count)
system.membus.transDist::ReadSharedReq         742824                       # Transaction distribution (Count)
system.membus.transDist::InvalidateReq              3                       # Transaction distribution (Count)
system.membus.pktCount_system.l3.mem_side_port::system.mem_ctrls.port      3696207                       # Packet count per connected requestor and responder (Count)
system.membus.pktCount::total                 3696207                       # Packet count per connected requestor and responder (Count)
system.membus.pktSize_system.l3.mem_side_port::system.mem_ctrls.port    111422976                       # Cumulative packet size per connected requestor and responder (Byte)
system.membus.pktSize::total                111422976                       # Cumulative packet size per connected requestor and responder (Byte)
system.membus.snoops                                0                       # Total snoops (Count)
system.membus.snoopTraffic                          0                       # Total snoop traffic (Byte)
system.membus.snoopFanout::samples            1271067                       # Request fanout histogram (Count)
system.membus.snoopFanout::mean                     0                       # Request fanout histogram (Count)
system.membus.snoopFanout::stdev                    0                       # Request fanout histogram (Count)
system.membus.snoopFanout::underflows               0      0.00%      0.00% # Request fanout histogram (Count)
system.membus.snoopFanout::0                  1271067    100.00%    100.00% # Request fanout histogram (Count)
system.membus.snoopFanout::1                        0      0.00%    100.00% # Request fanout histogram (Count)
system.membus.snoopFanout::overflows                0      0.00%    100.00% # Request fanout histogram (Count)
system.membus.snoopFanout::min_value                0                       # Request fanout histogram (Count)
system.membus.snoopFanout::max_value                0                       # Request fanout histogram (Count)
system.membus.snoopFanout::total              1271067                       # Request fanout histogram (Count)
system.membus.power_state.pwrStateResidencyTicks::UNDEFINED 150385593204                       # Cumulative time (in ticks) in various power states (Tick)
system.membus.reqLayer0.occupancy          5344981766                       # Layer occupancy (ticks) (Tick)
system.membus.reqLayer0.utilization               0.0                       # Layer utilization (Ratio)
system.membus.respLayer1.occupancy         6850676526                       # Layer occupancy (ticks) (Tick)
system.membus.respLayer1.utilization              0.0                       # Layer utilization (Ratio)
system.membus.snoop_filter.totRequests        2425143                       # Total number of requests made to the snoop filter. (Count)
system.membus.snoop_filter.hitSingleRequests      1154076                       # Number of requests hitting in the snoop filter with a single holder of the requested data. (Count)
system.membus.snoop_filter.hitMultiRequests            0                       # Number of requests hitting in the snoop filter with multiple (>1) holders of the requested data. (Count)
system.membus.snoop_filter.totSnoops                0                       # Total number of snoops made to the snoop filter. (Count)
system.membus.snoop_filter.hitSingleSnoops            0                       # Number of snoops hitting in the snoop filter with a single holder of the requested data. (Count)
system.membus.snoop_filter.hitMultiSnoops            0                       # Number of snoops hitting in the snoop filter with multiple (>1) holders of the requested data. (Count)
system.tol3bus.transDist::ReadResp             783276                       # Transaction distribution (Count)
system.tol3bus.transDist::WritebackDirty      1022721                       # Transaction distribution (Count)
system.tol3bus.transDist::CleanEvict          1414975                       # Transaction distribution (Count)
system.tol3bus.transDist::ReadExReq            528244                       # Transaction distribution (Count)
system.tol3bus.transDist::ReadExResp           528244                       # Transaction distribution (Count)
system.tol3bus.transDist::ReadSharedReq        783276                       # Transaction distribution (Count)
system.tol3bus.transDist::InvalidateReq             3                       # Transaction distribution (Count)
system.tol3bus.transDist::InvalidateResp            3                       # Transaction distribution (Count)
system.tol3bus.pktCount_system.cpu.l2cache.mem_side_port::system.l3.cpu_side_port      3901471                       # Packet count per connected requestor and responder (Count)
system.tol3bus.pktSize_system.cpu.l2cache.mem_side_port::system.l3.cpu_side_port    119316544                       # Cumulative packet size per connected requestor and responder (Byte)
system.tol3bus.snoops                         1159271                       # Total snoops (Count)
system.tol3bus.snoopTraffic                  30074880                       # Total snoop traffic (Byte)
system.tol3bus.snoopFanout::samples           2470794                       # Request fanout histogram (Count)
system.tol3bus.snoopFanout::mean             0.003076                       # Request fanout histogram (Count)
system.tol3bus.snoopFanout::stdev            0.055376                       # Request fanout histogram (Count)
system.tol3bus.snoopFanout::underflows              0      0.00%      0.00% # Request fanout histogram (Count)
system.tol3bus.snoopFanout::0                 2463194     99.69%     99.69% # Request fanout histogram (Count)
system.tol3bus.snoopFanout::1                    7600      0.31%    100.00% # Request fanout histogram (Count)
system.tol3bus.snoopFanout::overflows               0      0.00%    100.00% # Request fanout histogram (Count)
system.tol3bus.snoopFanout::min_value               0                       # Request fanout histogram (Count)
system.tol3bus.snoopFanout::max_value               1                       # Request fanout histogram (Count)
system.tol3bus.snoopFanout::total             2470794                       # Request fanout histogram (Count)
system.tol3bus.power_state.pwrStateResidencyTicks::UNDEFINED 150385593204                       # Cumulative time (in ticks) in various power states (Tick)
system.tol3bus.reqLayer0.occupancy         1230618150                       # Layer occupancy (ticks) (Tick)
system.tol3bus.reqLayer0.utilization              0.0                       # Layer utilization (Ratio)
system.tol3bus.respLayer0.occupancy        1310209479                       # Layer occupancy (ticks) (Tick)
system.tol3bus.respLayer0.utilization             0.0                       # Layer utilization (Ratio)
system.tol3bus.snoop_filter.totRequests       2589948                       # Total number of requests made to the snoop filter. (Count)
system.tol3bus.snoop_filter.hitSingleRequests      1278425                       # Number of requests hitting in the snoop filter with a single holder of the requested data. (Count)
system.tol3bus.snoop_filter.hitMultiRequests            0                       # Number of requests hitting in the snoop filter with multiple (>1) holders of the requested data. (Count)
system.tol3bus.snoop_filter.totSnoops            7600                       # Total number of snoops made to the snoop filter. (Count)
system.tol3bus.snoop_filter.hitSingleSnoops         7600                       # Number of snoops hitting in the snoop filter with a single holder of the requested data. (Count)
system.tol3bus.snoop_filter.hitMultiSnoops            0                       # Number of snoops hitting in the snoop filter with multiple (>1) holders of the requested data. (Count)
system.voltage_domain.voltage                       1                       # Voltage in Volts (Volt)
system.workload.inst.arm                            0                       # number of arm instructions executed (Count)
system.workload.inst.quiesce                        0                       # number of quiesce instructions executed (Count)

---------- End Simulation Statistics   ----------
