
---------- Begin Simulation Statistics ----------
simSeconds                                   0.077314                       # Number of seconds simulated (Second)
simTicks                                  77314392216                       # Number of ticks simulated (Tick)
finalTick                                 77314392216                       # Number of ticks from beginning of simulation (restored from checkpoints and never reset) (Tick)
simFreq                                  1000000000000                       # The number of ticks per simulated second ((Tick/Second))
hostSeconds                                    470.14                       # Real time elapsed on the host (Second)
hostTickRate                                164448489                       # The number of ticks simulated per host second (ticks/s) ((Tick/Second))
hostMemory                                     710892                       # Number of bytes of host memory used (Byte)
simInsts                                    249880335                       # Number of instructions simulated (Count)
simOps                                      249880549                       # Number of ops (including micro ops) simulated (Count)
hostInstRate                                   531497                       # Simulator instruction rate (inst/s) ((Count/Second))
hostOpRate                                     531498                       # Simulator op (including micro ops) rate (op/s) ((Count/Second))
system.clk_domain.clock                          1000                       # Clock period in ticks (Tick)
system.cpu0.numCycles                       231913176                       # Number of cpu cycles simulated (Cycle)
system.cpu0.numWorkItemsStarted                     0                       # Number of work items this cpu started (Count)
system.cpu0.numWorkItemsCompleted                   0                       # Number of work items this cpu completed (Count)
system.cpu0.instsAdded                      125191011                       # Number of instructions added to the IQ (excludes non-spec) (Count)
system.cpu0.nonSpecInstsAdded                     930                       # Number of non-speculative instructions added to the IQ (Count)
system.cpu0.instsIssued                     127677753                       # Number of instructions issued (Count)
system.cpu0.squashedInstsIssued                   240                       # Number of squashed instructions issued (Count)
system.cpu0.squashedInstsExamined              256732                       # Number of squashed instructions iterated over during squash; mainly for profiling (Count)
system.cpu0.squashedOperandsExamined           137367                       # Number of squashed operands that are examined and possibly removed from graph (Count)
system.cpu0.squashedNonSpecRemoved                280                       # Number of squashed non-spec instructions that were removed (Count)
system.cpu0.numIssuedDist::samples          231818677                       # Number of insts issued each cycle (Count)
system.cpu0.numIssuedDist::mean              0.550766                       # Number of insts issued each cycle (Count)
system.cpu0.numIssuedDist::stdev             0.975283                       # Number of insts issued each cycle (Count)
system.cpu0.numIssuedDist::underflows               0      0.00%      0.00% # Number of insts issued each cycle (Count)
system.cpu0.numIssuedDist::0                150694853     65.01%     65.01% # Number of insts issued each cycle (Count)
system.cpu0.numIssuedDist::1                 51936472     22.40%     87.41% # Number of insts issued each cycle (Count)
system.cpu0.numIssuedDist::2                 20650073      8.91%     96.32% # Number of insts issued each cycle (Count)
system.cpu0.numIssuedDist::3                  4745612      2.05%     98.36% # Number of insts issued each cycle (Count)
system.cpu0.numIssuedDist::4                  1257702      0.54%     98.91% # Number of insts issued each cycle (Count)
system.cpu0.numIssuedDist::5                   965457      0.42%     99.32% # Number of insts issued each cycle (Count)
system.cpu0.numIssuedDist::6                   978680      0.42%     99.75% # Number of insts issued each cycle (Count)
system.cpu0.numIssuedDist::7                   244498      0.11%     99.85% # Number of insts issued each cycle (Count)
system.cpu0.numIssuedDist::8                   345330      0.15%    100.00% # Number of insts issued each cycle (Count)
system.cpu0.numIssuedDist::overflows                0      0.00%    100.00% # Number of insts issued each cycle (Count)
system.cpu0.numIssuedDist::min_value                0                       # Number of insts issued each cycle (Count)
system.cpu0.numIssuedDist::max_value                8                       # Number of insts issued each cycle (Count)
system.cpu0.numIssuedDist::total            231818677                       # Number of insts issued each cycle (Count)
system.cpu0.statFuBusy::No_OpClass                  0      0.00%      0.00% # attempts to use FU when none available (Count)
system.cpu0.statFuBusy::IntAlu                 775255     68.59%     68.59% # attempts to use FU when none available (Count)
system.cpu0.statFuBusy::IntMult                     6      0.00%     68.59% # attempts to use FU when none available (Count)
system.cpu0.statFuBusy::IntDiv                      4      0.00%     68.59% # attempts to use FU when none available (Count)
system.cpu0.statFuBusy::FloatAdd                    0      0.00%     68.59% # attempts to use FU when none available (Count)
system.cpu0.statFuBusy::FloatCmp                    0      0.00%     68.59% # attempts to use FU when none available (Count)
system.cpu0.statFuBusy::FloatCvt                    0      0.00%     68.59% # attempts to use FU when none available (Count)
system.cpu0.statFuBusy::FloatMult                1027      0.09%     68.68% # attempts to use FU when none available (Count)
system.cpu0.statFuBusy::FloatMultAcc                0      0.00%     68.68% # attempts to use FU when none available (Count)
system.cpu0.statFuBusy::FloatDiv                    0      0.00%     68.68% # attempts to use FU when none available (Count)
system.cpu0.statFuBusy::FloatMisc                  15      0.00%     68.69% # attempts to use FU when none available (Count)
system.cpu0.statFuBusy::FloatSqrt                   0      0.00%     68.69% # attempts to use FU when none available (Count)
system.cpu0.statFuBusy::SimdAdd                     0      0.00%     68.69% # attempts to use FU when none available (Count)
system.cpu0.statFuBusy::SimdAddAcc                  0      0.00%     68.69% # attempts to use FU when none available (Count)
system.cpu0.statFuBusy::SimdAlu                     0      0.00%     68.69% # attempts to use FU when none available (Count)
system.cpu0.statFuBusy::SimdCmp                     0      0.00%     68.69% # attempts to use FU when none available (Count)
system.cpu0.statFuBusy::SimdCvt                     0      0.00%     68.69% # attempts to use FU when none available (Count)
system.cpu0.statFuBusy::SimdMisc                    0      0.00%     68.69% # attempts to use FU when none available (Count)
system.cpu0.statFuBusy::SimdMult                    0      0.00%     68.69% # attempts to use FU when none available (Count)
system.cpu0.statFuBusy::SimdMultAcc                 0      0.00%     68.69% # attempts to use FU when none available (Count)
system.cpu0.statFuBusy::SimdShift                   0      0.00%     68.69% # attempts to use FU when none available (Count)
system.cpu0.statFuBusy::SimdShiftAcc                0      0.00%     68.69% # attempts to use FU when none available (Count)
system.cpu0.statFuBusy::SimdDiv                     0      0.00%     68.69% # attempts to use FU when none available (Count)
system.cpu0.statFuBusy::SimdSqrt                    0      0.00%     68.69% # attempts to use FU when none available (Count)
system.cpu0.statFuBusy::SimdFloatAdd                0      0.00%     68.69% # attempts to use FU when none available (Count)
system.cpu0.statFuBusy::SimdFloatAlu                0      0.00%     68.69% # attempts to use FU when none available (Count)
system.cpu0.statFuBusy::SimdFloatCmp                0      0.00%     68.69% # attempts to use FU when none available (Count)
system.cpu0.statFuBusy::SimdFloatCvt                0      0.00%     68.69% # attempts to use FU when none available (Count)
system.cpu0.statFuBusy::SimdFloatDiv                0      0.00%     68.69% # attempts to use FU when none available (Count)
system.cpu0.statFuBusy::SimdFloatMisc               0      0.00%     68.69% # attempts to use FU when none available (Count)
system.cpu0.statFuBusy::SimdFloatMult               0      0.00%     68.69% # attempts to use FU when none available (Count)
system.cpu0.statFuBusy::SimdFloatMultAcc            0      0.00%     68.69% # attempts to use FU when none available (Count)
system.cpu0.statFuBusy::SimdFloatSqrt               0      0.00%     68.69% # attempts to use FU when none available (Count)
system.cpu0.statFuBusy::SimdReduceAdd               0      0.00%     68.69% # attempts to use FU when none available (Count)
system.cpu0.statFuBusy::SimdReduceAlu               0      0.00%     68.69% # attempts to use FU when none available (Count)
system.cpu0.statFuBusy::SimdReduceCmp               0      0.00%     68.69% # attempts to use FU when none available (Count)
system.cpu0.statFuBusy::SimdFloatReduceAdd            0      0.00%     68.69% # attempts to use FU when none available (Count)
system.cpu0.statFuBusy::SimdFloatReduceCmp            0      0.00%     68.69% # attempts to use FU when none available (Count)
system.cpu0.statFuBusy::SimdAes                     0      0.00%     68.69% # attempts to use FU when none available (Count)
system.cpu0.statFuBusy::SimdAesMix                  0      0.00%     68.69% # attempts to use FU when none available (Count)
system.cpu0.statFuBusy::SimdSha1Hash                0      0.00%     68.69% # attempts to use FU when none available (Count)
system.cpu0.statFuBusy::SimdSha1Hash2               0      0.00%     68.69% # attempts to use FU when none available (Count)
system.cpu0.statFuBusy::SimdSha256Hash              0      0.00%     68.69% # attempts to use FU when none available (Count)
system.cpu0.statFuBusy::SimdSha256Hash2             0      0.00%     68.69% # attempts to use FU when none available (Count)
system.cpu0.statFuBusy::SimdShaSigma2               0      0.00%     68.69% # attempts to use FU when none available (Count)
system.cpu0.statFuBusy::SimdShaSigma3               0      0.00%     68.69% # attempts to use FU when none available (Count)
system.cpu0.statFuBusy::SimdPredAlu                 0      0.00%     68.69% # attempts to use FU when none available (Count)
system.cpu0.statFuBusy::MemRead                352471     31.19%     99.87% # attempts to use FU when none available (Count)
system.cpu0.statFuBusy::MemWrite                 1445      0.13%    100.00% # attempts to use FU when none available (Count)
system.cpu0.statFuBusy::FloatMemRead                4      0.00%    100.00% # attempts to use FU when none available (Count)
system.cpu0.statFuBusy::FloatMemWrite               9      0.00%    100.00% # attempts to use FU when none available (Count)
system.cpu0.statFuBusy::IprAccess                   0      0.00%    100.00% # attempts to use FU when none available (Count)
system.cpu0.statFuBusy::InstPrefetch                0      0.00%    100.00% # attempts to use FU when none available (Count)
system.cpu0.statIssuedInstType_0::No_OpClass          398      0.00%      0.00% # Number of instructions issued per FU type, per thread (Count)
system.cpu0.statIssuedInstType_0::IntAlu     34778575     27.24%     27.24% # Number of instructions issued per FU type, per thread (Count)
system.cpu0.statIssuedInstType_0::IntMult           71      0.00%     27.24% # Number of instructions issued per FU type, per thread (Count)
system.cpu0.statIssuedInstType_0::IntDiv          142      0.00%     27.24% # Number of instructions issued per FU type, per thread (Count)
system.cpu0.statIssuedInstType_0::FloatAdd     14161932     11.09%     38.33% # Number of instructions issued per FU type, per thread (Count)
system.cpu0.statIssuedInstType_0::FloatCmp           16      0.00%     38.33% # Number of instructions issued per FU type, per thread (Count)
system.cpu0.statIssuedInstType_0::FloatCvt     17838103     13.97%     52.30% # Number of instructions issued per FU type, per thread (Count)
system.cpu0.statIssuedInstType_0::FloatMult     28325899     22.19%     74.49% # Number of instructions issued per FU type, per thread (Count)
system.cpu0.statIssuedInstType_0::FloatMultAcc            0      0.00%     74.49% # Number of instructions issued per FU type, per thread (Count)
system.cpu0.statIssuedInstType_0::FloatDiv            0      0.00%     74.49% # Number of instructions issued per FU type, per thread (Count)
system.cpu0.statIssuedInstType_0::FloatMisc      3148824      2.47%     76.95% # Number of instructions issued per FU type, per thread (Count)
system.cpu0.statIssuedInstType_0::FloatSqrt            0      0.00%     76.95% # Number of instructions issued per FU type, per thread (Count)
system.cpu0.statIssuedInstType_0::SimdAdd            0      0.00%     76.95% # Number of instructions issued per FU type, per thread (Count)
system.cpu0.statIssuedInstType_0::SimdAddAcc            0      0.00%     76.95% # Number of instructions issued per FU type, per thread (Count)
system.cpu0.statIssuedInstType_0::SimdAlu            0      0.00%     76.95% # Number of instructions issued per FU type, per thread (Count)
system.cpu0.statIssuedInstType_0::SimdCmp            0      0.00%     76.95% # Number of instructions issued per FU type, per thread (Count)
system.cpu0.statIssuedInstType_0::SimdCvt            0      0.00%     76.95% # Number of instructions issued per FU type, per thread (Count)
system.cpu0.statIssuedInstType_0::SimdMisc            0      0.00%     76.95% # Number of instructions issued per FU type, per thread (Count)
system.cpu0.statIssuedInstType_0::SimdMult            0      0.00%     76.95% # Number of instructions issued per FU type, per thread (Count)
system.cpu0.statIssuedInstType_0::SimdMultAcc            0      0.00%     76.95% # Number of instructions issued per FU type, per thread (Count)
system.cpu0.statIssuedInstType_0::SimdShift            0      0.00%     76.95% # Number of instructions issued per FU type, per thread (Count)
system.cpu0.statIssuedInstType_0::SimdShiftAcc            0      0.00%     76.95% # Number of instructions issued per FU type, per thread (Count)
system.cpu0.statIssuedInstType_0::SimdDiv            0      0.00%     76.95% # Number of instructions issued per FU type, per thread (Count)
system.cpu0.statIssuedInstType_0::SimdSqrt            0      0.00%     76.95% # Number of instructions issued per FU type, per thread (Count)
system.cpu0.statIssuedInstType_0::SimdFloatAdd            0      0.00%     76.95% # Number of instructions issued per FU type, per thread (Count)
system.cpu0.statIssuedInstType_0::SimdFloatAlu            0      0.00%     76.95% # Number of instructions issued per FU type, per thread (Count)
system.cpu0.statIssuedInstType_0::SimdFloatCmp            0      0.00%     76.95% # Number of instructions issued per FU type, per thread (Count)
system.cpu0.statIssuedInstType_0::SimdFloatCvt            0      0.00%     76.95% # Number of instructions issued per FU type, per thread (Count)
system.cpu0.statIssuedInstType_0::SimdFloatDiv            0      0.00%     76.95% # Number of instructions issued per FU type, per thread (Count)
system.cpu0.statIssuedInstType_0::SimdFloatMisc            0      0.00%     76.95% # Number of instructions issued per FU type, per thread (Count)
system.cpu0.statIssuedInstType_0::SimdFloatMult            0      0.00%     76.95% # Number of instructions issued per FU type, per thread (Count)
system.cpu0.statIssuedInstType_0::SimdFloatMultAcc            0      0.00%     76.95% # Number of instructions issued per FU type, per thread (Count)
system.cpu0.statIssuedInstType_0::SimdFloatSqrt            0      0.00%     76.95% # Number of instructions issued per FU type, per thread (Count)
system.cpu0.statIssuedInstType_0::SimdReduceAdd            0      0.00%     76.95% # Number of instructions issued per FU type, per thread (Count)
system.cpu0.statIssuedInstType_0::SimdReduceAlu            0      0.00%     76.95% # Number of instructions issued per FU type, per thread (Count)
system.cpu0.statIssuedInstType_0::SimdReduceCmp            0      0.00%     76.95% # Number of instructions issued per FU type, per thread (Count)
system.cpu0.statIssuedInstType_0::SimdFloatReduceAdd            0      0.00%     76.95% # Number of instructions issued per FU type, per thread (Count)
system.cpu0.statIssuedInstType_0::SimdFloatReduceCmp            0      0.00%     76.95% # Number of instructions issued per FU type, per thread (Count)
system.cpu0.statIssuedInstType_0::SimdAes            0      0.00%     76.95% # Number of instructions issued per FU type, per thread (Count)
system.cpu0.statIssuedInstType_0::SimdAesMix            0      0.00%     76.95% # Number of instructions issued per FU type, per thread (Count)
system.cpu0.statIssuedInstType_0::SimdSha1Hash            0      0.00%     76.95% # Number of instructions issued per FU type, per thread (Count)
system.cpu0.statIssuedInstType_0::SimdSha1Hash2            0      0.00%     76.95% # Number of instructions issued per FU type, per thread (Count)
system.cpu0.statIssuedInstType_0::SimdSha256Hash            0      0.00%     76.95% # Number of instructions issued per FU type, per thread (Count)
system.cpu0.statIssuedInstType_0::SimdSha256Hash2            0      0.00%     76.95% # Number of instructions issued per FU type, per thread (Count)
system.cpu0.statIssuedInstType_0::SimdShaSigma2            0      0.00%     76.95% # Number of instructions issued per FU type, per thread (Count)
system.cpu0.statIssuedInstType_0::SimdShaSigma3            0      0.00%     76.95% # Number of instructions issued per FU type, per thread (Count)
system.cpu0.statIssuedInstType_0::SimdPredAlu            0      0.00%     76.95% # Number of instructions issued per FU type, per thread (Count)
system.cpu0.statIssuedInstType_0::MemRead     15735618     12.32%     89.28% # Number of instructions issued per FU type, per thread (Count)
system.cpu0.statIssuedInstType_0::MemWrite      5285167      4.14%     93.42% # Number of instructions issued per FU type, per thread (Count)
system.cpu0.statIssuedInstType_0::FloatMemRead      8402973      6.58%    100.00% # Number of instructions issued per FU type, per thread (Count)
system.cpu0.statIssuedInstType_0::FloatMemWrite           35      0.00%    100.00% # Number of instructions issued per FU type, per thread (Count)
system.cpu0.statIssuedInstType_0::IprAccess            0      0.00%    100.00% # Number of instructions issued per FU type, per thread (Count)
system.cpu0.statIssuedInstType_0::InstPrefetch            0      0.00%    100.00% # Number of instructions issued per FU type, per thread (Count)
system.cpu0.statIssuedInstType_0::total     127677753                       # Number of instructions issued per FU type, per thread (Count)
system.cpu0.issueRate                        0.550541                       # Inst issue rate ((Count/Cycle))
system.cpu0.fuBusy                            1130236                       # FU busy when requested (Count)
system.cpu0.fuBusyRate                       0.008852                       # FU busy rate (busy events/executed inst) ((Count/Count))
system.cpu0.intInstQueueReads               344548040                       # Number of integer instruction queue reads (Count)
system.cpu0.intInstQueueWrites               53396005                       # Number of integer instruction queue writes (Count)
system.cpu0.intInstQueueWakeupAccesses       53231915                       # Number of integer instruction queue wakeup accesses (Count)
system.cpu0.fpInstQueueReads                143756619                       # Number of floating instruction queue reads (Count)
system.cpu0.fpInstQueueWrites                72052768                       # Number of floating instruction queue writes (Count)
system.cpu0.fpInstQueueWakeupAccesses        71876747                       # Number of floating instruction queue wakeup accesses (Count)
system.cpu0.vecInstQueueReads                       0                       # Number of vector instruction queue reads (Count)
system.cpu0.vecInstQueueWrites                      0                       # Number of vector instruction queue writes (Count)
system.cpu0.vecInstQueueWakeupAccesses              0                       # Number of vector instruction queue wakeup accesses (Count)
system.cpu0.intAluAccesses                   56928754                       # Number of integer alu accesses (Count)
system.cpu0.fpAluAccesses                    71878837                       # Number of floating point alu accesses (Count)
system.cpu0.vecAluAccesses                          0                       # Number of vector alu accesses (Count)
system.cpu0.numInsts                        127674834                       # Number of executed instructions (Count)
system.cpu0.numLoadInsts                     24137845                       # Number of load instructions executed (Count)
system.cpu0.numSquashedInsts                     2919                       # Number of squashed instructions skipped in execute (Count)
system.cpu0.numSwp                                  0                       # Number of swp insts executed (Count)
system.cpu0.numNop                                  0                       # Number of nop insts executed (Count)
system.cpu0.numRefs                          29422968                       # Number of memory reference insts executed (Count)
system.cpu0.numBranches                       7906910                       # Number of branches executed (Count)
system.cpu0.numStoreInsts                     5285123                       # Number of stores executed (Count)
system.cpu0.numRate                          0.550529                       # Inst execution rate ((Count/Cycle))
system.cpu0.timesIdled                            553                       # Number of times that the entire CPU went into an idle state and unscheduled itself (Count)
system.cpu0.idleCycles                          94499                       # Total number of cycles that the CPU has spent unscheduled due to idling (Cycle)
system.cpu0.quiesceCycles                      262178                       # Total number of cycles that CPU has spent quiesced or waiting for an interrupt (Cycle)
system.cpu0.committedInsts                  124935068                       # Number of Instructions Simulated (Count)
system.cpu0.committedOps                    124935208                       # Number of Ops (including micro ops) Simulated (Count)
system.cpu0.cpi                              1.856270                       # CPI: Cycles Per Instruction ((Cycle/Count))
system.cpu0.totalCpi                         1.856270                       # CPI: Total CPI of All Threads ((Cycle/Count))
system.cpu0.ipc                              0.538715                       # IPC: Instructions Per Cycle ((Count/Cycle))
system.cpu0.totalIpc                         0.538715                       # IPC: Total IPC of All Threads ((Count/Cycle))
system.cpu0.intRegfileReads                  86839985                       # Number of integer regfile reads (Count)
system.cpu0.intRegfileWrites                 51066509                       # Number of integer regfile writes (Count)
system.cpu0.fpRegfileReads                  100192410                       # Number of floating regfile reads (Count)
system.cpu0.fpRegfileWrites                  62957653                       # Number of floating regfile writes (Count)
system.cpu0.miscRegfileReads                195675448                       # number of misc regfile reads (Count)
system.cpu0.miscRegfileWrites                63438940                       # number of misc regfile writes (Count)
system.cpu0.MemDepUnit__0.insertedLoads      21581438                       # Number of loads inserted to the mem dependence unit. (Count)
system.cpu0.MemDepUnit__0.insertedStores      5287376                       # Number of stores inserted to the mem dependence unit. (Count)
system.cpu0.MemDepUnit__0.conflictingLoads      4717823                       # Number of conflicting loads. (Count)
system.cpu0.MemDepUnit__0.conflictingStores      3145715                       # Number of conflicting stores. (Count)
system.cpu0.MemDepUnit__1.insertedLoads             0                       # Number of loads inserted to the mem dependence unit. (Count)
system.cpu0.MemDepUnit__1.insertedStores            0                       # Number of stores inserted to the mem dependence unit. (Count)
system.cpu0.MemDepUnit__1.conflictingLoads            0                       # Number of conflicting loads. (Count)
system.cpu0.MemDepUnit__1.conflictingStores            0                       # Number of conflicting stores. (Count)
system.cpu0.MemDepUnit__2.insertedLoads             0                       # Number of loads inserted to the mem dependence unit. (Count)
system.cpu0.MemDepUnit__2.insertedStores            0                       # Number of stores inserted to the mem dependence unit. (Count)
system.cpu0.MemDepUnit__2.conflictingLoads            0                       # Number of conflicting loads. (Count)
system.cpu0.MemDepUnit__2.conflictingStores            0                       # Number of conflicting stores. (Count)
system.cpu0.MemDepUnit__3.insertedLoads             0                       # Number of loads inserted to the mem dependence unit. (Count)
system.cpu0.MemDepUnit__3.insertedStores            0                       # Number of stores inserted to the mem dependence unit. (Count)
system.cpu0.MemDepUnit__3.conflictingLoads            0                       # Number of conflicting loads. (Count)
system.cpu0.MemDepUnit__3.conflictingStores            0                       # Number of conflicting stores. (Count)
system.cpu0.branchPred.lookups                7919350                       # Number of BP lookups (Count)
system.cpu0.branchPred.condPredicted          3711538                       # Number of conditional branches predicted (Count)
system.cpu0.branchPred.condIncorrect             1704                       # Number of conditional branches incorrect (Count)
system.cpu0.branchPred.BTBLookups             5809110                       # Number of BTB lookups (Count)
system.cpu0.branchPred.BTBHits                5807285                       # Number of BTB hits (Count)
system.cpu0.branchPred.BTBHitRatio           0.999686                       # BTB Hit Ratio (Ratio)
system.cpu0.branchPred.RASUsed                2102782                       # Number of times the RAS was used to get a target. (Count)
system.cpu0.branchPred.RASIncorrect                10                       # Number of incorrect RAS predictions. (Count)
system.cpu0.branchPred.indirectLookups            390                       # Number of indirect predictor lookups. (Count)
system.cpu0.branchPred.indirectHits                53                       # Number of indirect target hits. (Count)
system.cpu0.branchPred.indirectMisses             337                       # Number of indirect misses. (Count)
system.cpu0.branchPred.indirectMispredicted          105                       # Number of mispredicted indirect branches. (Count)
system.cpu0.commit.commitSquashedInsts         242962                       # The number of squashed insts skipped by commit (Count)
system.cpu0.commit.commitNonSpecStalls            650                       # The number of times commit has been forced to stall to communicate backwards (Count)
system.cpu0.commit.branchMispredicts             1237                       # The number of times a branch was mispredicted (Count)
system.cpu0.commit.numCommittedDist::samples    231786377                       # Number of insts commited each cycle (Count)
system.cpu0.commit.numCommittedDist::mean     0.539010                       # Number of insts commited each cycle (Count)
system.cpu0.commit.numCommittedDist::stdev     1.370089                       # Number of insts commited each cycle (Count)
system.cpu0.commit.numCommittedDist::underflows            0      0.00%      0.00% # Number of insts commited each cycle (Count)
system.cpu0.commit.numCommittedDist::0      173032931     74.65%     74.65% # Number of insts commited each cycle (Count)
system.cpu0.commit.numCommittedDist::1       32840303     14.17%     88.82% # Number of insts commited each cycle (Count)
system.cpu0.commit.numCommittedDist::2       15407349      6.65%     95.47% # Number of insts commited each cycle (Count)
system.cpu0.commit.numCommittedDist::3        2505414      1.08%     96.55% # Number of insts commited each cycle (Count)
system.cpu0.commit.numCommittedDist::4        1890863      0.82%     97.36% # Number of insts commited each cycle (Count)
system.cpu0.commit.numCommittedDist::5         713649      0.31%     97.67% # Number of insts commited each cycle (Count)
system.cpu0.commit.numCommittedDist::6           4469      0.00%     97.67% # Number of insts commited each cycle (Count)
system.cpu0.commit.numCommittedDist::7         525738      0.23%     97.90% # Number of insts commited each cycle (Count)
system.cpu0.commit.numCommittedDist::8        4865661      2.10%    100.00% # Number of insts commited each cycle (Count)
system.cpu0.commit.numCommittedDist::overflows            0      0.00%    100.00% # Number of insts commited each cycle (Count)
system.cpu0.commit.numCommittedDist::min_value            0                       # Number of insts commited each cycle (Count)
system.cpu0.commit.numCommittedDist::max_value            8                       # Number of insts commited each cycle (Count)
system.cpu0.commit.numCommittedDist::total    231786377                       # Number of insts commited each cycle (Count)
system.cpu0.commit.instsCommitted           124935068                       # Number of instructions committed (Count)
system.cpu0.commit.opsCommitted             124935208                       # Number of ops (including micro ops) committed (Count)
system.cpu0.commit.memRefs                   26798784                       # Number of memory references committed (Count)
system.cpu0.commit.loads                     21529355                       # Number of loads committed (Count)
system.cpu0.commit.amos                           184                       # Number of atomic instructions committed (Count)
system.cpu0.commit.membars                        290                       # Number of memory barriers committed (Count)
system.cpu0.commit.branches                   7889057                       # Number of branches committed (Count)
system.cpu0.commit.vectorInstructions               0                       # Number of committed Vector instructions. (Count)
system.cpu0.commit.floating                  71827610                       # Number of committed floating point instructions. (Count)
system.cpu0.commit.integer                   79321486                       # Number of committed integer instructions. (Count)
system.cpu0.commit.functionCalls              2097760                       # Number of function calls committed. (Count)
system.cpu0.commit.committedInstType_0::No_OpClass          299      0.00%      0.00% # Class of committed instruction (Count)
system.cpu0.commit.committedInstType_0::IntAlu     34697006     27.77%     27.77% # Class of committed instruction (Count)
system.cpu0.commit.committedInstType_0::IntMult           57      0.00%     27.77% # Class of committed instruction (Count)
system.cpu0.commit.committedInstType_0::IntDiv          122      0.00%     27.77% # Class of committed instruction (Count)
system.cpu0.commit.committedInstType_0::FloatAdd     14155794     11.33%     39.10% # Class of committed instruction (Count)
system.cpu0.commit.committedInstType_0::FloatCmp            6      0.00%     39.10% # Class of committed instruction (Count)
system.cpu0.commit.committedInstType_0::FloatCvt     17825825     14.27%     53.37% # Class of committed instruction (Count)
system.cpu0.commit.committedInstType_0::FloatMult     28311577     22.66%     76.03% # Class of committed instruction (Count)
system.cpu0.commit.committedInstType_0::FloatMultAcc            0      0.00%     76.03% # Class of committed instruction (Count)
system.cpu0.commit.committedInstType_0::FloatDiv            0      0.00%     76.03% # Class of committed instruction (Count)
system.cpu0.commit.committedInstType_0::FloatMisc      3145738      2.52%     78.55% # Class of committed instruction (Count)
system.cpu0.commit.committedInstType_0::FloatSqrt            0      0.00%     78.55% # Class of committed instruction (Count)
system.cpu0.commit.committedInstType_0::SimdAdd            0      0.00%     78.55% # Class of committed instruction (Count)
system.cpu0.commit.committedInstType_0::SimdAddAcc            0      0.00%     78.55% # Class of committed instruction (Count)
system.cpu0.commit.committedInstType_0::SimdAlu            0      0.00%     78.55% # Class of committed instruction (Count)
system.cpu0.commit.committedInstType_0::SimdCmp            0      0.00%     78.55% # Class of committed instruction (Count)
system.cpu0.commit.committedInstType_0::SimdCvt            0      0.00%     78.55% # Class of committed instruction (Count)
system.cpu0.commit.committedInstType_0::SimdMisc            0      0.00%     78.55% # Class of committed instruction (Count)
system.cpu0.commit.committedInstType_0::SimdMult            0      0.00%     78.55% # Class of committed instruction (Count)
system.cpu0.commit.committedInstType_0::SimdMultAcc            0      0.00%     78.55% # Class of committed instruction (Count)
system.cpu0.commit.committedInstType_0::SimdShift            0      0.00%     78.55% # Class of committed instruction (Count)
system.cpu0.commit.committedInstType_0::SimdShiftAcc            0      0.00%     78.55% # Class of committed instruction (Count)
system.cpu0.commit.committedInstType_0::SimdDiv            0      0.00%     78.55% # Class of committed instruction (Count)
system.cpu0.commit.committedInstType_0::SimdSqrt            0      0.00%     78.55% # Class of committed instruction (Count)
system.cpu0.commit.committedInstType_0::SimdFloatAdd            0      0.00%     78.55% # Class of committed instruction (Count)
system.cpu0.commit.committedInstType_0::SimdFloatAlu            0      0.00%     78.55% # Class of committed instruction (Count)
system.cpu0.commit.committedInstType_0::SimdFloatCmp            0      0.00%     78.55% # Class of committed instruction (Count)
system.cpu0.commit.committedInstType_0::SimdFloatCvt            0      0.00%     78.55% # Class of committed instruction (Count)
system.cpu0.commit.committedInstType_0::SimdFloatDiv            0      0.00%     78.55% # Class of committed instruction (Count)
system.cpu0.commit.committedInstType_0::SimdFloatMisc            0      0.00%     78.55% # Class of committed instruction (Count)
system.cpu0.commit.committedInstType_0::SimdFloatMult            0      0.00%     78.55% # Class of committed instruction (Count)
system.cpu0.commit.committedInstType_0::SimdFloatMultAcc            0      0.00%     78.55% # Class of committed instruction (Count)
system.cpu0.commit.committedInstType_0::SimdFloatSqrt            0      0.00%     78.55% # Class of committed instruction (Count)
system.cpu0.commit.committedInstType_0::SimdReduceAdd            0      0.00%     78.55% # Class of committed instruction (Count)
system.cpu0.commit.committedInstType_0::SimdReduceAlu            0      0.00%     78.55% # Class of committed instruction (Count)
system.cpu0.commit.committedInstType_0::SimdReduceCmp            0      0.00%     78.55% # Class of committed instruction (Count)
system.cpu0.commit.committedInstType_0::SimdFloatReduceAdd            0      0.00%     78.55% # Class of committed instruction (Count)
system.cpu0.commit.committedInstType_0::SimdFloatReduceCmp            0      0.00%     78.55% # Class of committed instruction (Count)
system.cpu0.commit.committedInstType_0::SimdAes            0      0.00%     78.55% # Class of committed instruction (Count)
system.cpu0.commit.committedInstType_0::SimdAesMix            0      0.00%     78.55% # Class of committed instruction (Count)
system.cpu0.commit.committedInstType_0::SimdSha1Hash            0      0.00%     78.55% # Class of committed instruction (Count)
system.cpu0.commit.committedInstType_0::SimdSha1Hash2            0      0.00%     78.55% # Class of committed instruction (Count)
system.cpu0.commit.committedInstType_0::SimdSha256Hash            0      0.00%     78.55% # Class of committed instruction (Count)
system.cpu0.commit.committedInstType_0::SimdSha256Hash2            0      0.00%     78.55% # Class of committed instruction (Count)
system.cpu0.commit.committedInstType_0::SimdShaSigma2            0      0.00%     78.55% # Class of committed instruction (Count)
system.cpu0.commit.committedInstType_0::SimdShaSigma3            0      0.00%     78.55% # Class of committed instruction (Count)
system.cpu0.commit.committedInstType_0::SimdPredAlu            0      0.00%     78.55% # Class of committed instruction (Count)
system.cpu0.commit.committedInstType_0::MemRead     13140904     10.52%     89.07% # Class of committed instruction (Count)
system.cpu0.commit.committedInstType_0::MemWrite      5269210      4.22%     93.29% # Class of committed instruction (Count)
system.cpu0.commit.committedInstType_0::FloatMemRead      8388635      6.71%    100.00% # Class of committed instruction (Count)
system.cpu0.commit.committedInstType_0::FloatMemWrite           35      0.00%    100.00% # Class of committed instruction (Count)
system.cpu0.commit.committedInstType_0::IprAccess            0      0.00%    100.00% # Class of committed instruction (Count)
system.cpu0.commit.committedInstType_0::InstPrefetch            0      0.00%    100.00% # Class of committed instruction (Count)
system.cpu0.commit.committedInstType_0::total    124935208                       # Class of committed instruction (Count)
system.cpu0.commit.commitEligibleSamples      4865661                       # number cycles where commit BW limit reached (Cycle)
system.cpu0.dcache.demandHits::cpu0.data     22950972                       # number of demand (read+write) hits (Count)
system.cpu0.dcache.demandHits::total         22950972                       # number of demand (read+write) hits (Count)
system.cpu0.dcache.overallHits::cpu0.data     22950972                       # number of overall hits (Count)
system.cpu0.dcache.overallHits::total        22950972                       # number of overall hits (Count)
system.cpu0.dcache.demandMisses::cpu0.data      3852159                       # number of demand (read+write) misses (Count)
system.cpu0.dcache.demandMisses::total        3852159                       # number of demand (read+write) misses (Count)
system.cpu0.dcache.overallMisses::cpu0.data      3852159                       # number of overall misses (Count)
system.cpu0.dcache.overallMisses::total       3852159                       # number of overall misses (Count)
system.cpu0.dcache.demandMissLatency::cpu0.data 265088563702                       # number of demand (read+write) miss ticks (Tick)
system.cpu0.dcache.demandMissLatency::total 265088563702                       # number of demand (read+write) miss ticks (Tick)
system.cpu0.dcache.overallMissLatency::cpu0.data 265088563702                       # number of overall miss ticks (Tick)
system.cpu0.dcache.overallMissLatency::total 265088563702                       # number of overall miss ticks (Tick)
system.cpu0.dcache.demandAccesses::cpu0.data     26803131                       # number of demand (read+write) accesses (Count)
system.cpu0.dcache.demandAccesses::total     26803131                       # number of demand (read+write) accesses (Count)
system.cpu0.dcache.overallAccesses::cpu0.data     26803131                       # number of overall (read+write) accesses (Count)
system.cpu0.dcache.overallAccesses::total     26803131                       # number of overall (read+write) accesses (Count)
system.cpu0.dcache.demandMissRate::cpu0.data     0.143720                       # miss rate for demand accesses (Ratio)
system.cpu0.dcache.demandMissRate::total     0.143720                       # miss rate for demand accesses (Ratio)
system.cpu0.dcache.overallMissRate::cpu0.data     0.143720                       # miss rate for overall accesses (Ratio)
system.cpu0.dcache.overallMissRate::total     0.143720                       # miss rate for overall accesses (Ratio)
system.cpu0.dcache.demandAvgMissLatency::cpu0.data 68815.582042                       # average overall miss latency in ticks ((Tick/Count))
system.cpu0.dcache.demandAvgMissLatency::total 68815.582042                       # average overall miss latency in ticks ((Tick/Count))
system.cpu0.dcache.overallAvgMissLatency::cpu0.data 68815.582042                       # average overall miss latency ((Tick/Count))
system.cpu0.dcache.overallAvgMissLatency::total 68815.582042                       # average overall miss latency ((Tick/Count))
system.cpu0.dcache.blockedCycles::no_mshrs     12084910                       # number of cycles access was blocked (Cycle)
system.cpu0.dcache.blockedCycles::no_targets            0                       # number of cycles access was blocked (Cycle)
system.cpu0.dcache.blockedCauses::no_mshrs       536430                       # number of times access was blocked (Count)
system.cpu0.dcache.blockedCauses::no_targets            0                       # number of times access was blocked (Count)
system.cpu0.dcache.avgBlocked::no_mshrs     22.528401                       # average number of cycles each access was blocked ((Cycle/Count))
system.cpu0.dcache.avgBlocked::no_targets          nan                       # average number of cycles each access was blocked ((Cycle/Count))
system.cpu0.dcache.writebacks::writebacks       973395                       # number of writebacks (Count)
system.cpu0.dcache.writebacks::total           973395                       # number of writebacks (Count)
system.cpu0.dcache.demandMshrHits::cpu0.data      2483618                       # number of demand (read+write) MSHR hits (Count)
system.cpu0.dcache.demandMshrHits::total      2483618                       # number of demand (read+write) MSHR hits (Count)
system.cpu0.dcache.overallMshrHits::cpu0.data      2483618                       # number of overall MSHR hits (Count)
system.cpu0.dcache.overallMshrHits::total      2483618                       # number of overall MSHR hits (Count)
system.cpu0.dcache.demandMshrMisses::cpu0.data      1368541                       # number of demand (read+write) MSHR misses (Count)
system.cpu0.dcache.demandMshrMisses::total      1368541                       # number of demand (read+write) MSHR misses (Count)
system.cpu0.dcache.overallMshrMisses::cpu0.data      1368541                       # number of overall MSHR misses (Count)
system.cpu0.dcache.overallMshrMisses::total      1368541                       # number of overall MSHR misses (Count)
system.cpu0.dcache.demandMshrMissLatency::cpu0.data  71839903166                       # number of demand (read+write) MSHR miss ticks (Tick)
system.cpu0.dcache.demandMshrMissLatency::total  71839903166                       # number of demand (read+write) MSHR miss ticks (Tick)
system.cpu0.dcache.overallMshrMissLatency::cpu0.data  71839903166                       # number of overall MSHR miss ticks (Tick)
system.cpu0.dcache.overallMshrMissLatency::total  71839903166                       # number of overall MSHR miss ticks (Tick)
system.cpu0.dcache.demandMshrMissRate::cpu0.data     0.051059                       # mshr miss ratio for demand accesses (Ratio)
system.cpu0.dcache.demandMshrMissRate::total     0.051059                       # mshr miss ratio for demand accesses (Ratio)
system.cpu0.dcache.overallMshrMissRate::cpu0.data     0.051059                       # mshr miss ratio for overall accesses (Ratio)
system.cpu0.dcache.overallMshrMissRate::total     0.051059                       # mshr miss ratio for overall accesses (Ratio)
system.cpu0.dcache.demandAvgMshrMissLatency::cpu0.data 52493.789493                       # average overall mshr miss latency ((Tick/Count))
system.cpu0.dcache.demandAvgMshrMissLatency::total 52493.789493                       # average overall mshr miss latency ((Tick/Count))
system.cpu0.dcache.overallAvgMshrMissLatency::cpu0.data 52493.789493                       # average overall mshr miss latency ((Tick/Count))
system.cpu0.dcache.overallAvgMshrMissLatency::total 52493.789493                       # average overall mshr miss latency ((Tick/Count))
system.cpu0.dcache.replacements               1363648                       # number of replacements (Count)
system.cpu0.dcache.LoadLockedReq.hits::cpu0.data           83                       # number of LoadLockedReq hits (Count)
system.cpu0.dcache.LoadLockedReq.hits::total           83                       # number of LoadLockedReq hits (Count)
system.cpu0.dcache.LoadLockedReq.misses::cpu0.data           34                       # number of LoadLockedReq misses (Count)
system.cpu0.dcache.LoadLockedReq.misses::total           34                       # number of LoadLockedReq misses (Count)
system.cpu0.dcache.LoadLockedReq.missLatency::cpu0.data      1673991                       # number of LoadLockedReq miss ticks (Tick)
system.cpu0.dcache.LoadLockedReq.missLatency::total      1673991                       # number of LoadLockedReq miss ticks (Tick)
system.cpu0.dcache.LoadLockedReq.accesses::cpu0.data          117                       # number of LoadLockedReq accesses(hits+misses) (Count)
system.cpu0.dcache.LoadLockedReq.accesses::total          117                       # number of LoadLockedReq accesses(hits+misses) (Count)
system.cpu0.dcache.LoadLockedReq.missRate::cpu0.data     0.290598                       # miss rate for LoadLockedReq accesses (Ratio)
system.cpu0.dcache.LoadLockedReq.missRate::total     0.290598                       # miss rate for LoadLockedReq accesses (Ratio)
system.cpu0.dcache.LoadLockedReq.avgMissLatency::cpu0.data 49235.029412                       # average LoadLockedReq miss latency ((Tick/Count))
system.cpu0.dcache.LoadLockedReq.avgMissLatency::total 49235.029412                       # average LoadLockedReq miss latency ((Tick/Count))
system.cpu0.dcache.LoadLockedReq.mshrHits::cpu0.data           29                       # number of LoadLockedReq MSHR hits (Count)
system.cpu0.dcache.LoadLockedReq.mshrHits::total           29                       # number of LoadLockedReq MSHR hits (Count)
system.cpu0.dcache.LoadLockedReq.mshrMisses::cpu0.data            5                       # number of LoadLockedReq MSHR misses (Count)
system.cpu0.dcache.LoadLockedReq.mshrMisses::total            5                       # number of LoadLockedReq MSHR misses (Count)
system.cpu0.dcache.LoadLockedReq.mshrMissLatency::cpu0.data       402264                       # number of LoadLockedReq MSHR miss ticks (Tick)
system.cpu0.dcache.LoadLockedReq.mshrMissLatency::total       402264                       # number of LoadLockedReq MSHR miss ticks (Tick)
system.cpu0.dcache.LoadLockedReq.mshrMissRate::cpu0.data     0.042735                       # mshr miss rate for LoadLockedReq accesses (Ratio)
system.cpu0.dcache.LoadLockedReq.mshrMissRate::total     0.042735                       # mshr miss rate for LoadLockedReq accesses (Ratio)
system.cpu0.dcache.LoadLockedReq.avgMshrMissLatency::cpu0.data 80452.800000                       # average LoadLockedReq mshr miss latency ((Tick/Count))
system.cpu0.dcache.LoadLockedReq.avgMshrMissLatency::total 80452.800000                       # average LoadLockedReq mshr miss latency ((Tick/Count))
system.cpu0.dcache.ReadReq.hits::cpu0.data     18690534                       # number of ReadReq hits (Count)
system.cpu0.dcache.ReadReq.hits::total       18690534                       # number of ReadReq hits (Count)
system.cpu0.dcache.ReadReq.misses::cpu0.data      2843451                       # number of ReadReq misses (Count)
system.cpu0.dcache.ReadReq.misses::total      2843451                       # number of ReadReq misses (Count)
system.cpu0.dcache.ReadReq.missLatency::cpu0.data 225969984819                       # number of ReadReq miss ticks (Tick)
system.cpu0.dcache.ReadReq.missLatency::total 225969984819                       # number of ReadReq miss ticks (Tick)
system.cpu0.dcache.ReadReq.accesses::cpu0.data     21533985                       # number of ReadReq accesses(hits+misses) (Count)
system.cpu0.dcache.ReadReq.accesses::total     21533985                       # number of ReadReq accesses(hits+misses) (Count)
system.cpu0.dcache.ReadReq.missRate::cpu0.data     0.132045                       # miss rate for ReadReq accesses (Ratio)
system.cpu0.dcache.ReadReq.missRate::total     0.132045                       # miss rate for ReadReq accesses (Ratio)
system.cpu0.dcache.ReadReq.avgMissLatency::cpu0.data 79470.328421                       # average ReadReq miss latency ((Tick/Count))
system.cpu0.dcache.ReadReq.avgMissLatency::total 79470.328421                       # average ReadReq miss latency ((Tick/Count))
system.cpu0.dcache.ReadReq.mshrHits::cpu0.data      2380726                       # number of ReadReq MSHR hits (Count)
system.cpu0.dcache.ReadReq.mshrHits::total      2380726                       # number of ReadReq MSHR hits (Count)
system.cpu0.dcache.ReadReq.mshrMisses::cpu0.data       462725                       # number of ReadReq MSHR misses (Count)
system.cpu0.dcache.ReadReq.mshrMisses::total       462725                       # number of ReadReq MSHR misses (Count)
system.cpu0.dcache.ReadReq.mshrMissLatency::cpu0.data  36572677380                       # number of ReadReq MSHR miss ticks (Tick)
system.cpu0.dcache.ReadReq.mshrMissLatency::total  36572677380                       # number of ReadReq MSHR miss ticks (Tick)
system.cpu0.dcache.ReadReq.mshrMissRate::cpu0.data     0.021488                       # mshr miss rate for ReadReq accesses (Ratio)
system.cpu0.dcache.ReadReq.mshrMissRate::total     0.021488                       # mshr miss rate for ReadReq accesses (Ratio)
system.cpu0.dcache.ReadReq.avgMshrMissLatency::cpu0.data 79037.608472                       # average ReadReq mshr miss latency ((Tick/Count))
system.cpu0.dcache.ReadReq.avgMshrMissLatency::total 79037.608472                       # average ReadReq mshr miss latency ((Tick/Count))
system.cpu0.dcache.StoreCondReq.hits::cpu0.data           80                       # number of StoreCondReq hits (Count)
system.cpu0.dcache.StoreCondReq.hits::total           80                       # number of StoreCondReq hits (Count)
system.cpu0.dcache.StoreCondReq.misses::cpu0.data           19                       # number of StoreCondReq misses (Count)
system.cpu0.dcache.StoreCondReq.misses::total           19                       # number of StoreCondReq misses (Count)
system.cpu0.dcache.StoreCondReq.missLatency::cpu0.data       472194                       # number of StoreCondReq miss ticks (Tick)
system.cpu0.dcache.StoreCondReq.missLatency::total       472194                       # number of StoreCondReq miss ticks (Tick)
system.cpu0.dcache.StoreCondReq.accesses::cpu0.data           99                       # number of StoreCondReq accesses(hits+misses) (Count)
system.cpu0.dcache.StoreCondReq.accesses::total           99                       # number of StoreCondReq accesses(hits+misses) (Count)
system.cpu0.dcache.StoreCondReq.missRate::cpu0.data     0.191919                       # miss rate for StoreCondReq accesses (Ratio)
system.cpu0.dcache.StoreCondReq.missRate::total     0.191919                       # miss rate for StoreCondReq accesses (Ratio)
system.cpu0.dcache.StoreCondReq.avgMissLatency::cpu0.data 24852.315789                       # average StoreCondReq miss latency ((Tick/Count))
system.cpu0.dcache.StoreCondReq.avgMissLatency::total 24852.315789                       # average StoreCondReq miss latency ((Tick/Count))
system.cpu0.dcache.StoreCondReq.mshrMisses::cpu0.data           19                       # number of StoreCondReq MSHR misses (Count)
system.cpu0.dcache.StoreCondReq.mshrMisses::total           19                       # number of StoreCondReq MSHR misses (Count)
system.cpu0.dcache.StoreCondReq.mshrMissLatency::cpu0.data       459540                       # number of StoreCondReq MSHR miss ticks (Tick)
system.cpu0.dcache.StoreCondReq.mshrMissLatency::total       459540                       # number of StoreCondReq MSHR miss ticks (Tick)
system.cpu0.dcache.StoreCondReq.mshrMissRate::cpu0.data     0.191919                       # mshr miss rate for StoreCondReq accesses (Ratio)
system.cpu0.dcache.StoreCondReq.mshrMissRate::total     0.191919                       # mshr miss rate for StoreCondReq accesses (Ratio)
system.cpu0.dcache.StoreCondReq.avgMshrMissLatency::cpu0.data 24186.315789                       # average StoreCondReq mshr miss latency ((Tick/Count))
system.cpu0.dcache.StoreCondReq.avgMshrMissLatency::total 24186.315789                       # average StoreCondReq mshr miss latency ((Tick/Count))
system.cpu0.dcache.SwapReq.hits::cpu0.data          156                       # number of SwapReq hits (Count)
system.cpu0.dcache.SwapReq.hits::total            156                       # number of SwapReq hits (Count)
system.cpu0.dcache.SwapReq.misses::cpu0.data           28                       # number of SwapReq misses (Count)
system.cpu0.dcache.SwapReq.misses::total           28                       # number of SwapReq misses (Count)
system.cpu0.dcache.SwapReq.missLatency::cpu0.data      1031967                       # number of SwapReq miss ticks (Tick)
system.cpu0.dcache.SwapReq.missLatency::total      1031967                       # number of SwapReq miss ticks (Tick)
system.cpu0.dcache.SwapReq.accesses::cpu0.data          184                       # number of SwapReq accesses(hits+misses) (Count)
system.cpu0.dcache.SwapReq.accesses::total          184                       # number of SwapReq accesses(hits+misses) (Count)
system.cpu0.dcache.SwapReq.missRate::cpu0.data     0.152174                       # miss rate for SwapReq accesses (Ratio)
system.cpu0.dcache.SwapReq.missRate::total     0.152174                       # miss rate for SwapReq accesses (Ratio)
system.cpu0.dcache.SwapReq.avgMissLatency::cpu0.data 36855.964286                       # average SwapReq miss latency ((Tick/Count))
system.cpu0.dcache.SwapReq.avgMissLatency::total 36855.964286                       # average SwapReq miss latency ((Tick/Count))
system.cpu0.dcache.SwapReq.mshrHits::cpu0.data           11                       # number of SwapReq MSHR hits (Count)
system.cpu0.dcache.SwapReq.mshrHits::total           11                       # number of SwapReq MSHR hits (Count)
system.cpu0.dcache.SwapReq.mshrMisses::cpu0.data           17                       # number of SwapReq MSHR misses (Count)
system.cpu0.dcache.SwapReq.mshrMisses::total           17                       # number of SwapReq MSHR misses (Count)
system.cpu0.dcache.SwapReq.mshrMissLatency::cpu0.data       974691                       # number of SwapReq MSHR miss ticks (Tick)
system.cpu0.dcache.SwapReq.mshrMissLatency::total       974691                       # number of SwapReq MSHR miss ticks (Tick)
system.cpu0.dcache.SwapReq.mshrMissRate::cpu0.data     0.092391                       # mshr miss rate for SwapReq accesses (Ratio)
system.cpu0.dcache.SwapReq.mshrMissRate::total     0.092391                       # mshr miss rate for SwapReq accesses (Ratio)
system.cpu0.dcache.SwapReq.avgMshrMissLatency::cpu0.data 57334.764706                       # average SwapReq mshr miss latency ((Tick/Count))
system.cpu0.dcache.SwapReq.avgMshrMissLatency::total 57334.764706                       # average SwapReq mshr miss latency ((Tick/Count))
system.cpu0.dcache.WriteReq.hits::cpu0.data      4260438                       # number of WriteReq hits (Count)
system.cpu0.dcache.WriteReq.hits::total       4260438                       # number of WriteReq hits (Count)
system.cpu0.dcache.WriteReq.misses::cpu0.data      1008708                       # number of WriteReq misses (Count)
system.cpu0.dcache.WriteReq.misses::total      1008708                       # number of WriteReq misses (Count)
system.cpu0.dcache.WriteReq.missLatency::cpu0.data  39118578883                       # number of WriteReq miss ticks (Tick)
system.cpu0.dcache.WriteReq.missLatency::total  39118578883                       # number of WriteReq miss ticks (Tick)
system.cpu0.dcache.WriteReq.accesses::cpu0.data      5269146                       # number of WriteReq accesses(hits+misses) (Count)
system.cpu0.dcache.WriteReq.accesses::total      5269146                       # number of WriteReq accesses(hits+misses) (Count)
system.cpu0.dcache.WriteReq.missRate::cpu0.data     0.191437                       # miss rate for WriteReq accesses (Ratio)
system.cpu0.dcache.WriteReq.missRate::total     0.191437                       # miss rate for WriteReq accesses (Ratio)
system.cpu0.dcache.WriteReq.avgMissLatency::cpu0.data 38780.875023                       # average WriteReq miss latency ((Tick/Count))
system.cpu0.dcache.WriteReq.avgMissLatency::total 38780.875023                       # average WriteReq miss latency ((Tick/Count))
system.cpu0.dcache.WriteReq.mshrHits::cpu0.data       102892                       # number of WriteReq MSHR hits (Count)
system.cpu0.dcache.WriteReq.mshrHits::total       102892                       # number of WriteReq MSHR hits (Count)
system.cpu0.dcache.WriteReq.mshrMisses::cpu0.data       905816                       # number of WriteReq MSHR misses (Count)
system.cpu0.dcache.WriteReq.mshrMisses::total       905816                       # number of WriteReq MSHR misses (Count)
system.cpu0.dcache.WriteReq.mshrMissLatency::cpu0.data  35267225786                       # number of WriteReq MSHR miss ticks (Tick)
system.cpu0.dcache.WriteReq.mshrMissLatency::total  35267225786                       # number of WriteReq MSHR miss ticks (Tick)
system.cpu0.dcache.WriteReq.mshrMissRate::cpu0.data     0.171909                       # mshr miss rate for WriteReq accesses (Ratio)
system.cpu0.dcache.WriteReq.mshrMissRate::total     0.171909                       # mshr miss rate for WriteReq accesses (Ratio)
system.cpu0.dcache.WriteReq.avgMshrMissLatency::cpu0.data 38934.204944                       # average WriteReq mshr miss latency ((Tick/Count))
system.cpu0.dcache.WriteReq.avgMshrMissLatency::total 38934.204944                       # average WriteReq mshr miss latency ((Tick/Count))
system.cpu0.dcache.power_state.pwrStateResidencyTicks::UNDEFINED  77314392216                       # Cumulative time (in ticks) in various power states (Tick)
system.cpu0.dcache.tags.tagsInUse          511.494923                       # Average ticks per tags in use ((Tick/Count))
system.cpu0.dcache.tags.totalRefs            24321825                       # Total number of references to valid blocks. (Count)
system.cpu0.dcache.tags.sampledRefs           1366261                       # Sample count of references to valid blocks. (Count)
system.cpu0.dcache.tags.avgRefs             17.801741                       # Average number of references to valid blocks. ((Count/Count))
system.cpu0.dcache.tags.warmupTick             268065                       # The tick when the warmup percentage was hit. (Tick)
system.cpu0.dcache.tags.occupancies::cpu0.data   511.494923                       # Average occupied blocks per tick, per requestor ((Count/Tick))
system.cpu0.dcache.tags.avgOccs::cpu0.data     0.999014                       # Average percentage of cache occupancy ((Ratio/Tick))
system.cpu0.dcache.tags.avgOccs::total       0.999014                       # Average percentage of cache occupancy ((Ratio/Tick))
system.cpu0.dcache.tags.occupanciesTaskId::1024          512                       # Occupied blocks per task id (Count)
system.cpu0.dcache.tags.ageTaskId_1024::0           49                       # Occupied blocks per task id, per block age (Count)
system.cpu0.dcache.tags.ageTaskId_1024::1          454                       # Occupied blocks per task id, per block age (Count)
system.cpu0.dcache.tags.ageTaskId_1024::3            9                       # Occupied blocks per task id, per block age (Count)
system.cpu0.dcache.tags.ratioOccsTaskId::1024            1                       # Ratio of occupied blocks and all blocks, per task id (Ratio)
system.cpu0.dcache.tags.tagAccesses         215794509                       # Number of tag accesses (Count)
system.cpu0.dcache.tags.dataAccesses        215794509                       # Number of data accesses (Count)
system.cpu0.dcache.tags.power_state.pwrStateResidencyTicks::UNDEFINED  77314392216                       # Cumulative time (in ticks) in various power states (Tick)
system.cpu0.decode.idleCycles                 4430572                       # Number of cycles decode is idle (Cycle)
system.cpu0.decode.blockedCycles            211719687                       # Number of cycles decode is blocked (Cycle)
system.cpu0.decode.runCycles                  1402711                       # Number of cycles decode is running (Cycle)
system.cpu0.decode.unblockCycles             14262252                       # Number of cycles decode is unblocking (Cycle)
system.cpu0.decode.squashCycles                  3455                       # Number of cycles decode is squashing (Cycle)
system.cpu0.decode.branchResolved             5803030                       # Number of times decode resolved a branch (Count)
system.cpu0.decode.branchMispred                  513                       # Number of times decode detected a branch misprediction (Count)
system.cpu0.decode.decodedInsts             125226520                       # Number of instructions handled by decode (Count)
system.cpu0.decode.squashedInsts                 1925                       # Number of squashed instructions handled by decode (Count)
system.cpu0.dtb_walker_cache.blockedCycles::no_mshrs            0                       # number of cycles access was blocked (Cycle)
system.cpu0.dtb_walker_cache.blockedCycles::no_targets            0                       # number of cycles access was blocked (Cycle)
system.cpu0.dtb_walker_cache.blockedCauses::no_mshrs            0                       # number of times access was blocked (Count)
system.cpu0.dtb_walker_cache.blockedCauses::no_targets            0                       # number of times access was blocked (Count)
system.cpu0.dtb_walker_cache.avgBlocked::no_mshrs          nan                       # average number of cycles each access was blocked ((Cycle/Count))
system.cpu0.dtb_walker_cache.avgBlocked::no_targets          nan                       # average number of cycles each access was blocked ((Cycle/Count))
system.cpu0.dtb_walker_cache.replacements            0                       # number of replacements (Count)
system.cpu0.dtb_walker_cache.power_state.pwrStateResidencyTicks::UNDEFINED  77314392216                       # Cumulative time (in ticks) in various power states (Tick)
system.cpu0.dtb_walker_cache.tags.tagsInUse            0                       # Average ticks per tags in use ((Tick/Count))
system.cpu0.dtb_walker_cache.tags.totalRefs            0                       # Total number of references to valid blocks. (Count)
system.cpu0.dtb_walker_cache.tags.sampledRefs            0                       # Sample count of references to valid blocks. (Count)
system.cpu0.dtb_walker_cache.tags.avgRefs          nan                       # Average number of references to valid blocks. ((Count/Count))
system.cpu0.dtb_walker_cache.tags.warmupTick            0                       # The tick when the warmup percentage was hit. (Tick)
system.cpu0.dtb_walker_cache.tags.tagAccesses            0                       # Number of tag accesses (Count)
system.cpu0.dtb_walker_cache.tags.dataAccesses            0                       # Number of data accesses (Count)
system.cpu0.dtb_walker_cache.tags.power_state.pwrStateResidencyTicks::UNDEFINED  77314392216                       # Cumulative time (in ticks) in various power states (Tick)
system.cpu0.fetch.icacheStallCycles          12644280                       # Number of cycles fetch is stalled on an Icache miss (Cycle)
system.cpu0.fetch.insts                     125330282                       # Number of instructions fetch has processed (Count)
system.cpu0.fetch.branches                    7919350                       # Number of branches that fetch encountered (Count)
system.cpu0.fetch.predictedBranches           7910120                       # Number of branches that fetch has predicted taken (Count)
system.cpu0.fetch.cycles                    219170098                       # Number of cycles fetch has run and was not squashing or blocked (Cycle)
system.cpu0.fetch.squashCycles                   7904                       # Number of cycles fetch has spent squashing (Cycle)
system.cpu0.fetch.miscStallCycles                  61                       # Number of cycles fetch has spent waiting on interrupts, or bad addresses, or out of MSHRs (Cycle)
system.cpu0.fetch.pendingTrapStallCycles          187                       # Number of stall cycles due to pending traps (Cycle)
system.cpu0.fetch.icacheWaitRetryStallCycles           99                       # Number of stall cycles due to full MSHR (Cycle)
system.cpu0.fetch.cacheLines                 12620802                       # Number of cache lines fetched (Count)
system.cpu0.fetch.icacheSquashes                  959                       # Number of outstanding Icache misses that were squashed (Count)
system.cpu0.fetch.nisnDist::samples         231818677                       # Number of instructions fetched each cycle (Total) (Count)
system.cpu0.fetch.nisnDist::mean             0.540640                       # Number of instructions fetched each cycle (Total) (Count)
system.cpu0.fetch.nisnDist::stdev            1.795703                       # Number of instructions fetched each cycle (Total) (Count)
system.cpu0.fetch.nisnDist::underflows              0      0.00%      0.00% # Number of instructions fetched each cycle (Total) (Count)
system.cpu0.fetch.nisnDist::0               208472164     89.93%     89.93% # Number of instructions fetched each cycle (Total) (Count)
system.cpu0.fetch.nisnDist::1                 1836039      0.79%     90.72% # Number of instructions fetched each cycle (Total) (Count)
system.cpu0.fetch.nisnDist::2                 2232757      0.96%     91.68% # Number of instructions fetched each cycle (Total) (Count)
system.cpu0.fetch.nisnDist::3                 2800779      1.21%     92.89% # Number of instructions fetched each cycle (Total) (Count)
system.cpu0.fetch.nisnDist::4                 1860124      0.80%     93.69% # Number of instructions fetched each cycle (Total) (Count)
system.cpu0.fetch.nisnDist::5                 2571693      1.11%     94.80% # Number of instructions fetched each cycle (Total) (Count)
system.cpu0.fetch.nisnDist::6                 2426156      1.05%     95.85% # Number of instructions fetched each cycle (Total) (Count)
system.cpu0.fetch.nisnDist::7                 1180952      0.51%     96.36% # Number of instructions fetched each cycle (Total) (Count)
system.cpu0.fetch.nisnDist::8                 8438013      3.64%    100.00% # Number of instructions fetched each cycle (Total) (Count)
system.cpu0.fetch.nisnDist::overflows               0      0.00%    100.00% # Number of instructions fetched each cycle (Total) (Count)
system.cpu0.fetch.nisnDist::min_value               0                       # Number of instructions fetched each cycle (Total) (Count)
system.cpu0.fetch.nisnDist::max_value               8                       # Number of instructions fetched each cycle (Total) (Count)
system.cpu0.fetch.nisnDist::total           231818677                       # Number of instructions fetched each cycle (Total) (Count)
system.cpu0.fetch.branchRate                 0.034148                       # Number of branch fetches per cycle (Ratio)
system.cpu0.fetch.rate                       0.540419                       # Number of inst fetches per cycle ((Count/Cycle))
system.cpu0.icache.demandHits::cpu0.inst     12619804                       # number of demand (read+write) hits (Count)
system.cpu0.icache.demandHits::total         12619804                       # number of demand (read+write) hits (Count)
system.cpu0.icache.overallHits::cpu0.inst     12619804                       # number of overall hits (Count)
system.cpu0.icache.overallHits::total        12619804                       # number of overall hits (Count)
system.cpu0.icache.demandMisses::cpu0.inst          997                       # number of demand (read+write) misses (Count)
system.cpu0.icache.demandMisses::total            997                       # number of demand (read+write) misses (Count)
system.cpu0.icache.overallMisses::cpu0.inst          997                       # number of overall misses (Count)
system.cpu0.icache.overallMisses::total           997                       # number of overall misses (Count)
system.cpu0.icache.demandMissLatency::cpu0.inst     81469447                       # number of demand (read+write) miss ticks (Tick)
system.cpu0.icache.demandMissLatency::total     81469447                       # number of demand (read+write) miss ticks (Tick)
system.cpu0.icache.overallMissLatency::cpu0.inst     81469447                       # number of overall miss ticks (Tick)
system.cpu0.icache.overallMissLatency::total     81469447                       # number of overall miss ticks (Tick)
system.cpu0.icache.demandAccesses::cpu0.inst     12620801                       # number of demand (read+write) accesses (Count)
system.cpu0.icache.demandAccesses::total     12620801                       # number of demand (read+write) accesses (Count)
system.cpu0.icache.overallAccesses::cpu0.inst     12620801                       # number of overall (read+write) accesses (Count)
system.cpu0.icache.overallAccesses::total     12620801                       # number of overall (read+write) accesses (Count)
system.cpu0.icache.demandMissRate::cpu0.inst     0.000079                       # miss rate for demand accesses (Ratio)
system.cpu0.icache.demandMissRate::total     0.000079                       # miss rate for demand accesses (Ratio)
system.cpu0.icache.overallMissRate::cpu0.inst     0.000079                       # miss rate for overall accesses (Ratio)
system.cpu0.icache.overallMissRate::total     0.000079                       # miss rate for overall accesses (Ratio)
system.cpu0.icache.demandAvgMissLatency::cpu0.inst 81714.590772                       # average overall miss latency in ticks ((Tick/Count))
system.cpu0.icache.demandAvgMissLatency::total 81714.590772                       # average overall miss latency in ticks ((Tick/Count))
system.cpu0.icache.overallAvgMissLatency::cpu0.inst 81714.590772                       # average overall miss latency ((Tick/Count))
system.cpu0.icache.overallAvgMissLatency::total 81714.590772                       # average overall miss latency ((Tick/Count))
system.cpu0.icache.blockedCycles::no_mshrs         2289                       # number of cycles access was blocked (Cycle)
system.cpu0.icache.blockedCycles::no_targets            0                       # number of cycles access was blocked (Cycle)
system.cpu0.icache.blockedCauses::no_mshrs           15                       # number of times access was blocked (Count)
system.cpu0.icache.blockedCauses::no_targets            0                       # number of times access was blocked (Count)
system.cpu0.icache.avgBlocked::no_mshrs    152.600000                       # average number of cycles each access was blocked ((Cycle/Count))
system.cpu0.icache.avgBlocked::no_targets          nan                       # average number of cycles each access was blocked ((Cycle/Count))
system.cpu0.icache.writebacks::writebacks          205                       # number of writebacks (Count)
system.cpu0.icache.writebacks::total              205                       # number of writebacks (Count)
system.cpu0.icache.demandMshrHits::cpu0.inst          298                       # number of demand (read+write) MSHR hits (Count)
system.cpu0.icache.demandMshrHits::total          298                       # number of demand (read+write) MSHR hits (Count)
system.cpu0.icache.overallMshrHits::cpu0.inst          298                       # number of overall MSHR hits (Count)
system.cpu0.icache.overallMshrHits::total          298                       # number of overall MSHR hits (Count)
system.cpu0.icache.demandMshrMisses::cpu0.inst          699                       # number of demand (read+write) MSHR misses (Count)
system.cpu0.icache.demandMshrMisses::total          699                       # number of demand (read+write) MSHR misses (Count)
system.cpu0.icache.overallMshrMisses::cpu0.inst          699                       # number of overall MSHR misses (Count)
system.cpu0.icache.overallMshrMisses::total          699                       # number of overall MSHR misses (Count)
system.cpu0.icache.demandMshrMissLatency::cpu0.inst     60745858                       # number of demand (read+write) MSHR miss ticks (Tick)
system.cpu0.icache.demandMshrMissLatency::total     60745858                       # number of demand (read+write) MSHR miss ticks (Tick)
system.cpu0.icache.overallMshrMissLatency::cpu0.inst     60745858                       # number of overall MSHR miss ticks (Tick)
system.cpu0.icache.overallMshrMissLatency::total     60745858                       # number of overall MSHR miss ticks (Tick)
system.cpu0.icache.demandMshrMissRate::cpu0.inst     0.000055                       # mshr miss ratio for demand accesses (Ratio)
system.cpu0.icache.demandMshrMissRate::total     0.000055                       # mshr miss ratio for demand accesses (Ratio)
system.cpu0.icache.overallMshrMissRate::cpu0.inst     0.000055                       # mshr miss ratio for overall accesses (Ratio)
system.cpu0.icache.overallMshrMissRate::total     0.000055                       # mshr miss ratio for overall accesses (Ratio)
system.cpu0.icache.demandAvgMshrMissLatency::cpu0.inst 86903.945637                       # average overall mshr miss latency ((Tick/Count))
system.cpu0.icache.demandAvgMshrMissLatency::total 86903.945637                       # average overall mshr miss latency ((Tick/Count))
system.cpu0.icache.overallAvgMshrMissLatency::cpu0.inst 86903.945637                       # average overall mshr miss latency ((Tick/Count))
system.cpu0.icache.overallAvgMshrMissLatency::total 86903.945637                       # average overall mshr miss latency ((Tick/Count))
system.cpu0.icache.replacements                   205                       # number of replacements (Count)
system.cpu0.icache.ReadReq.hits::cpu0.inst     12619804                       # number of ReadReq hits (Count)
system.cpu0.icache.ReadReq.hits::total       12619804                       # number of ReadReq hits (Count)
system.cpu0.icache.ReadReq.misses::cpu0.inst          997                       # number of ReadReq misses (Count)
system.cpu0.icache.ReadReq.misses::total          997                       # number of ReadReq misses (Count)
system.cpu0.icache.ReadReq.missLatency::cpu0.inst     81469447                       # number of ReadReq miss ticks (Tick)
system.cpu0.icache.ReadReq.missLatency::total     81469447                       # number of ReadReq miss ticks (Tick)
system.cpu0.icache.ReadReq.accesses::cpu0.inst     12620801                       # number of ReadReq accesses(hits+misses) (Count)
system.cpu0.icache.ReadReq.accesses::total     12620801                       # number of ReadReq accesses(hits+misses) (Count)
system.cpu0.icache.ReadReq.missRate::cpu0.inst     0.000079                       # miss rate for ReadReq accesses (Ratio)
system.cpu0.icache.ReadReq.missRate::total     0.000079                       # miss rate for ReadReq accesses (Ratio)
system.cpu0.icache.ReadReq.avgMissLatency::cpu0.inst 81714.590772                       # average ReadReq miss latency ((Tick/Count))
system.cpu0.icache.ReadReq.avgMissLatency::total 81714.590772                       # average ReadReq miss latency ((Tick/Count))
system.cpu0.icache.ReadReq.mshrHits::cpu0.inst          298                       # number of ReadReq MSHR hits (Count)
system.cpu0.icache.ReadReq.mshrHits::total          298                       # number of ReadReq MSHR hits (Count)
system.cpu0.icache.ReadReq.mshrMisses::cpu0.inst          699                       # number of ReadReq MSHR misses (Count)
system.cpu0.icache.ReadReq.mshrMisses::total          699                       # number of ReadReq MSHR misses (Count)
system.cpu0.icache.ReadReq.mshrMissLatency::cpu0.inst     60745858                       # number of ReadReq MSHR miss ticks (Tick)
system.cpu0.icache.ReadReq.mshrMissLatency::total     60745858                       # number of ReadReq MSHR miss ticks (Tick)
system.cpu0.icache.ReadReq.mshrMissRate::cpu0.inst     0.000055                       # mshr miss rate for ReadReq accesses (Ratio)
system.cpu0.icache.ReadReq.mshrMissRate::total     0.000055                       # mshr miss rate for ReadReq accesses (Ratio)
system.cpu0.icache.ReadReq.avgMshrMissLatency::cpu0.inst 86903.945637                       # average ReadReq mshr miss latency ((Tick/Count))
system.cpu0.icache.ReadReq.avgMshrMissLatency::total 86903.945637                       # average ReadReq mshr miss latency ((Tick/Count))
system.cpu0.icache.power_state.pwrStateResidencyTicks::UNDEFINED  77314392216                       # Cumulative time (in ticks) in various power states (Tick)
system.cpu0.icache.tags.tagsInUse          434.608700                       # Average ticks per tags in use ((Tick/Count))
system.cpu0.icache.tags.totalRefs            12620503                       # Total number of references to valid blocks. (Count)
system.cpu0.icache.tags.sampledRefs               699                       # Sample count of references to valid blocks. (Count)
system.cpu0.icache.tags.avgRefs          18055.082976                       # Average number of references to valid blocks. ((Count/Count))
system.cpu0.icache.tags.warmupTick              92241                       # The tick when the warmup percentage was hit. (Tick)
system.cpu0.icache.tags.occupancies::cpu0.inst   434.608700                       # Average occupied blocks per tick, per requestor ((Count/Tick))
system.cpu0.icache.tags.avgOccs::cpu0.inst     0.848845                       # Average percentage of cache occupancy ((Ratio/Tick))
system.cpu0.icache.tags.avgOccs::total       0.848845                       # Average percentage of cache occupancy ((Ratio/Tick))
system.cpu0.icache.tags.occupanciesTaskId::1024          494                       # Occupied blocks per task id (Count)
system.cpu0.icache.tags.ageTaskId_1024::0          128                       # Occupied blocks per task id, per block age (Count)
[...]
system.mem_ctrls.dram.perBankWrBursts::13        29094                       # Per bank write bursts (Count)
system.mem_ctrls.dram.perBankWrBursts::14        28800                       # Per bank write bursts (Count)
system.mem_ctrls.dram.perBankWrBursts::15        28602                       # Per bank write bursts (Count)
system.mem_ctrls.dram.totQLat             32860613693                       # Total ticks spent queuing (Tick)
system.mem_ctrls.dram.totBusLat            6142685000                       # Total ticks spent in databus transfers (Tick)
system.mem_ctrls.dram.totMemAccLat        55895682443                       # Total ticks spent from burst creation until serviced by the DRAM (Tick)
system.mem_ctrls.dram.avgQLat                26747.76                       # Average queueing delay per DRAM burst ((Tick/Count))
system.mem_ctrls.dram.avgBusLat               5000.00                       # Average bus latency per DRAM burst ((Tick/Count))
system.mem_ctrls.dram.avgMemAccLat           45497.76                       # Average memory access latency per DRAM burst ((Tick/Count))
system.mem_ctrls.dram.readRowHits              704820                       # Number of row buffer hits during reads (Count)
system.mem_ctrls.dram.writeRowHits             221006                       # Number of row buffer hits during writes (Count)
system.mem_ctrls.dram.readRowHitRate            57.37                       # Row buffer hit rate for reads (Ratio)
system.mem_ctrls.dram.writeRowHitRate           47.91                       # Row buffer hit rate for writes (Ratio)
system.mem_ctrls.dram.bytesPerActivate::samples       764006                       # Bytes accessed per row activation (Byte)
system.mem_ctrls.dram.bytesPerActivate::mean   141.554658                       # Bytes accessed per row activation (Byte)
system.mem_ctrls.dram.bytesPerActivate::gmean    90.305372                       # Bytes accessed per row activation (Byte)
system.mem_ctrls.dram.bytesPerActivate::stdev   211.606847                       # Bytes accessed per row activation (Byte)
system.mem_ctrls.dram.bytesPerActivate::0-127       597179     78.16%     78.16% # Bytes accessed per row activation (Byte)
system.mem_ctrls.dram.bytesPerActivate::128-255        71663      9.38%     87.54% # Bytes accessed per row activation (Byte)
system.mem_ctrls.dram.bytesPerActivate::256-383        24577      3.22%     90.76% # Bytes accessed per row activation (Byte)
system.mem_ctrls.dram.bytesPerActivate::384-511        15738      2.06%     92.82% # Bytes accessed per row activation (Byte)
system.mem_ctrls.dram.bytesPerActivate::512-639        10782      1.41%     94.23% # Bytes accessed per row activation (Byte)
system.mem_ctrls.dram.bytesPerActivate::640-767         9378      1.23%     95.46% # Bytes accessed per row activation (Byte)
system.mem_ctrls.dram.bytesPerActivate::768-895         4907      0.64%     96.10% # Bytes accessed per row activation (Byte)
system.mem_ctrls.dram.bytesPerActivate::896-1023         3839      0.50%     96.60% # Bytes accessed per row activation (Byte)
system.mem_ctrls.dram.bytesPerActivate::1024-1151        25943      3.40%    100.00% # Bytes accessed per row activation (Byte)
system.mem_ctrls.dram.bytesPerActivate::total       764006                       # Bytes accessed per row activation (Byte)
system.mem_ctrls.dram.bytesRead              78626368                       # Total bytes read (Byte)
system.mem_ctrls.dram.bytesWritten           29523392                       # Total bytes written (Byte)
system.mem_ctrls.dram.avgRdBW             1016.969360                       # Average DRAM read bandwidth in MiBytes/s ((Byte/Second))
system.mem_ctrls.dram.avgWrBW              381.861529                       # Average DRAM write bandwidth in MiBytes/s ((Byte/Second))
system.mem_ctrls.dram.peakBW                 12800.00                       # Theoretical peak bandwidth in MiByte/s ((Byte/Second))
system.mem_ctrls.dram.busUtil                   10.93                       # Data bus utilization in percentage (Ratio)
system.mem_ctrls.dram.busUtilRead                7.95                       # Data bus utilization in percentage for reads (Ratio)
system.mem_ctrls.dram.busUtilWrite               2.98                       # Data bus utilization in percentage for writes (Ratio)
system.mem_ctrls.dram.pageHitRate               54.79                       # Row buffer hit rate, read and write combined (Ratio)
system.mem_ctrls.dram.power_state.pwrStateResidencyTicks::UNDEFINED  77314392216                       # Cumulative time (in ticks) in various power states (Tick)
system.mem_ctrls.dram.rank0.actEnergy      2732299500                       # Energy for activate commands per rank (pJ) (Joule)
system.mem_ctrls.dram.rank0.preEnergy      1452236445                       # Energy for precharge commands per rank (pJ) (Joule)
system.mem_ctrls.dram.rank0.readEnergy     4385823540                       # Energy for read commands per rank (pJ) (Joule)
system.mem_ctrls.dram.rank0.writeEnergy    1206174960                       # Energy for write commands per rank (pJ) (Joule)
system.mem_ctrls.dram.rank0.refreshEnergy 6102760560.000001                       # Energy for refresh commands per rank (pJ) (Joule)
system.mem_ctrls.dram.rank0.actBackEnergy  24411481200                       # Energy for active background per rank (pJ) (Joule)
system.mem_ctrls.dram.rank0.preBackEnergy   9131689920                       # Energy for precharge background per rank (pJ) (Joule)
system.mem_ctrls.dram.rank0.actPowerDownEnergy            0                       # Energy for active power-down per rank (pJ) (Joule)
system.mem_ctrls.dram.rank0.prePowerDownEnergy            0                       # Energy for precharge power-down per rank (pJ) (Joule)
system.mem_ctrls.dram.rank0.selfRefreshEnergy            0                       # Energy for self refresh per rank (pJ) (Joule)
system.mem_ctrls.dram.rank0.totalEnergy   49422466125                       # Total energy per rank (pJ) (Joule)
system.mem_ctrls.dram.rank0.averagePower   639.240182                       # Core power per rank (mW) (Watt)
system.mem_ctrls.dram.rank0.totalIdleTime            0                       # Total Idle time Per DRAM Rank (Tick)
system.mem_ctrls.dram.rank0.pwrStateTime::IDLE  23392074252                       # Time in different power states (Tick)
system.mem_ctrls.dram.rank0.pwrStateTime::REF   2581540000                       # Time in different power states (Tick)
system.mem_ctrls.dram.rank0.pwrStateTime::SREF            0                       # Time in different power states (Tick)
system.mem_ctrls.dram.rank0.pwrStateTime::PRE_PDN            0                       # Time in different power states (Tick)
system.mem_ctrls.dram.rank0.pwrStateTime::ACT  51340777964                       # Time in different power states (Tick)
system.mem_ctrls.dram.rank0.pwrStateTime::ACT_PDN            0                       # Time in different power states (Tick)
system.mem_ctrls.dram.rank1.actEnergy      2722760460                       # Energy for activate commands per rank (pJ) (Joule)
system.mem_ctrls.dram.rank1.preEnergy      1447166325                       # Energy for precharge commands per rank (pJ) (Joule)
system.mem_ctrls.dram.rank1.readEnergy     4385930640                       # Energy for read commands per rank (pJ) (Joule)
system.mem_ctrls.dram.rank1.writeEnergy    1201826700                       # Energy for write commands per rank (pJ) (Joule)
system.mem_ctrls.dram.rank1.refreshEnergy 6102760560.000001                       # Energy for refresh commands per rank (pJ) (Joule)
system.mem_ctrls.dram.rank1.actBackEnergy  24434241870                       # Energy for active background per rank (pJ) (Joule)
system.mem_ctrls.dram.rank1.preBackEnergy   9112523040                       # Energy for precharge background per rank (pJ) (Joule)
system.mem_ctrls.dram.rank1.actPowerDownEnergy            0                       # Energy for active power-down per rank (pJ) (Joule)
system.mem_ctrls.dram.rank1.prePowerDownEnergy            0                       # Energy for precharge power-down per rank (pJ) (Joule)
system.mem_ctrls.dram.rank1.selfRefreshEnergy            0                       # Energy for self refresh per rank (pJ) (Joule)
system.mem_ctrls.dram.rank1.totalEnergy   49407209595                       # Total energy per rank (pJ) (Joule)
system.mem_ctrls.dram.rank1.averagePower   639.042851                       # Core power per rank (mW) (Watt)
system.mem_ctrls.dram.rank1.totalIdleTime            0                       # Total Idle time Per DRAM Rank (Tick)
system.mem_ctrls.dram.rank1.pwrStateTime::IDLE  23348576819                       # Time in different power states (Tick)
system.mem_ctrls.dram.rank1.pwrStateTime::REF   2581540000                       # Time in different power states (Tick)
system.mem_ctrls.dram.rank1.pwrStateTime::SREF            0                       # Time in different power states (Tick)
system.mem_ctrls.dram.rank1.pwrStateTime::PRE_PDN            0                       # Time in different power states (Tick)
system.mem_ctrls.dram.rank1.pwrStateTime::ACT  51384275397                       # Time in different power states (Tick)
system.mem_ctrls.dram.rank1.pwrStateTime::ACT_PDN            0                       # Time in different power states (Tick)
system.mem_ctrls.power_state.pwrStateResidencyTicks::UNDEFINED  77314392216                       # Cumulative time (in ticks) in various power states (Tick)
system.membus.transDist::ReadResp              698889                       # Transaction distribution (Count)
system.membus.transDist::WritebackDirty        461318                       # Transaction distribution (Count)
system.membus.transDist::CleanEvict            648415                       # Transaction distribution (Count)
system.membus.transDist::UpgradeReq              4048                       # Transaction distribution (Count)
system.membus.transDist::SCUpgradeReq              43                       # Transaction distribution (Count)
system.membus.transDist::ReadExReq             529720                       # Transaction distribution (Count)
system.membus.transDist::ReadExResp            529692                       # Transaction distribution (Count)
system.membus.transDist::ReadSharedReq         698889                       # Transaction distribution (Count)
system.membus.transDist::InvalidateReq             15                       # Transaction distribution (Count)
system.membus.pktCount_system.l3.mem_side_port::system.mem_ctrls.port      3571029                       # Packet count per connected requestor and responder (Count)
system.membus.pktCount::total                 3571029                       # Packet count per connected requestor and responder (Count)
system.membus.pktSize_system.l3.mem_side_port::system.mem_ctrls.port    108153536                       # Cumulative packet size per connected requestor and responder (Byte)
system.membus.pktSize::total                108153536                       # Cumulative packet size per connected requestor and responder (Byte)
system.membus.snoops                             4115                       # Total snoops (Count)
system.membus.snoopTraffic                          0                       # Total snoop traffic (Byte)
system.membus.snoopFanout::samples            1232715                       # Request fanout histogram (Count)
system.membus.snoopFanout::mean                     0                       # Request fanout histogram (Count)
system.membus.snoopFanout::stdev                    0                       # Request fanout histogram (Count)
system.membus.snoopFanout::underflows               0      0.00%      0.00% # Request fanout histogram (Count)
system.membus.snoopFanout::0                  1232715    100.00%    100.00% # Request fanout histogram (Count)
system.membus.snoopFanout::1                        0      0.00%    100.00% # Request fanout histogram (Count)
system.membus.snoopFanout::overflows                0      0.00%    100.00% # Request fanout histogram (Count)
system.membus.snoopFanout::min_value                0                       # Request fanout histogram (Count)
system.membus.snoopFanout::max_value                0                       # Request fanout histogram (Count)
system.membus.snoopFanout::total              1232715                       # Request fanout histogram (Count)
system.membus.power_state.pwrStateResidencyTicks::UNDEFINED  77314392216                       # Cumulative time (in ticks) in various power states (Tick)
system.membus.reqLayer0.occupancy          5132891140                       # Layer occupancy (ticks) (Tick)
system.membus.reqLayer0.utilization               0.1                       # Layer utilization (Ratio)
system.membus.respLayer1.occupancy         6616386675                       # Layer occupancy (ticks) (Tick)
system.membus.respLayer1.utilization              0.1                       # Layer utilization (Ratio)
system.membus.snoop_filter.totRequests        2342448                       # Total number of requests made to the snoop filter. (Count)
system.membus.snoop_filter.hitSingleRequests      1116510                       # Number of requests hitting in the snoop filter with a single holder of the requested data. (Count)
system.membus.snoop_filter.hitMultiRequests            0                       # Number of requests hitting in the snoop filter with multiple (>1) holders of the requested data. (Count)
system.membus.snoop_filter.totSnoops                0                       # Total number of snoops made to the snoop filter. (Count)
system.membus.snoop_filter.hitSingleSnoops            0                       # Number of snoops hitting in the snoop filter with a single holder of the requested data. (Count)
system.membus.snoop_filter.hitMultiSnoops            0                       # Number of snoops hitting in the snoop filter with multiple (>1) holders of the requested data. (Count)
system.tol3bus.transDist::ReadResp             785927                       # Transaction distribution (Count)
system.tol3bus.transDist::WritebackDirty      1004541                       # Transaction distribution (Count)
system.tol3bus.transDist::CleanEvict          1571743                       # Transaction distribution (Count)
system.tol3bus.transDist::UpgradeReq             4456                       # Transaction distribution (Count)
system.tol3bus.transDist::SCUpgradeReq             44                       # Transaction distribution (Count)
system.tol3bus.transDist::UpgradeResp            4500                       # Transaction distribution (Count)
system.tol3bus.transDist::ReadExReq            529787                       # Transaction distribution (Count)
system.tol3bus.transDist::ReadExResp           529787                       # Transaction distribution (Count)
system.tol3bus.transDist::ReadSharedReq        785927                       # Transaction distribution (Count)
system.tol3bus.transDist::InvalidateReq            36                       # Transaction distribution (Count)
system.tol3bus.transDist::InvalidateResp           36                       # Transaction distribution (Count)
system.tol3bus.pktCount_system.cpu0.l2cache.mem_side_port::system.l3.cpu_side_port      1929045                       # Packet count per connected requestor and responder (Count)
system.tol3bus.pktCount_system.cpu1.l2cache.mem_side_port::system.l3.cpu_side_port      1920796                       # Packet count per connected requestor and responder (Count)
system.tol3bus.pktCount::total                3849841                       # Packet count per connected requestor and responder (Count)
system.tol3bus.pktSize_system.cpu0.l2cache.mem_side_port::system.l3.cpu_side_port     58677952                       # Cumulative packet size per connected requestor and responder (Byte)
system.tol3bus.pktSize_system.cpu1.l2cache.mem_side_port::system.l3.cpu_side_port     58435840                       # Cumulative packet size per connected requestor and responder (Byte)
system.tol3bus.pktSize::total               117113792                       # Cumulative packet size per connected requestor and responder (Byte)
system.tol3bus.snoops                         1366943                       # Total snoops (Count)
system.tol3bus.snoopTraffic                  31382528                       # Total snoop traffic (Byte)
system.tol3bus.snoopFanout::samples           2654072                       # Request fanout histogram (Count)
system.tol3bus.snoopFanout::mean             0.155486                       # Request fanout histogram (Count)
system.tol3bus.snoopFanout::stdev            0.368345                       # Request fanout histogram (Count)
system.tol3bus.snoopFanout::underflows              0      0.00%      0.00% # Request fanout histogram (Count)
system.tol3bus.snoopFanout::0                 2247196     84.67%     84.67% # Request fanout histogram (Count)
system.tol3bus.snoopFanout::1                  401080     15.11%     99.78% # Request fanout histogram (Count)
system.tol3bus.snoopFanout::2                    5796      0.22%    100.00% # Request fanout histogram (Count)
system.tol3bus.snoopFanout::overflows               0      0.00%    100.00% # Request fanout histogram (Count)
system.tol3bus.snoopFanout::min_value               0                       # Request fanout histogram (Count)
system.tol3bus.snoopFanout::max_value               2                       # Request fanout histogram (Count)
system.tol3bus.snoopFanout::total             2654072                       # Request fanout histogram (Count)
system.tol3bus.power_state.pwrStateResidencyTicks::UNDEFINED  77314392216                       # Cumulative time (in ticks) in various power states (Tick)
system.tol3bus.reqLayer0.occupancy         1215172606                       # Layer occupancy (ticks) (Tick)
system.tol3bus.reqLayer0.utilization              0.0                       # Layer utilization (Ratio)
system.tol3bus.respLayer0.occupancy         658665182                       # Layer occupancy (ticks) (Tick)
system.tol3bus.respLayer0.utilization             0.0                       # Layer utilization (Ratio)
system.tol3bus.respLayer1.occupancy         657353818                       # Layer occupancy (ticks) (Tick)
system.tol3bus.respLayer1.utilization             0.0                       # Layer utilization (Ratio)
system.tol3bus.snoop_filter.totRequests       2562712                       # Total number of requests made to the snoop filter. (Count)
system.tol3bus.snoop_filter.hitSingleRequests      1246787                       # Number of requests hitting in the snoop filter with a single holder of the requested data. (Count)
system.tol3bus.snoop_filter.hitMultiRequests        32320                       # Number of requests hitting in the snoop filter with multiple (>1) holders of the requested data. (Count)
system.tol3bus.snoop_filter.totSnoops          370239                       # Total number of snoops made to the snoop filter. (Count)
system.tol3bus.snoop_filter.hitSingleSnoops       364443                       # Number of snoops hitting in the snoop filter with a single holder of the requested data. (Count)
system.tol3bus.snoop_filter.hitMultiSnoops         5796                       # Number of snoops hitting in the snoop filter with multiple (>1) holders of the requested data. (Count)
system.voltage_domain.voltage                       1                       # Voltage in Volts (Volt)
system.workload.inst.arm                            0                       # number of arm instructions executed (Count)
system.workload.inst.quiesce                        0                       # number of quiesce instructions executed (Count)

---------- End Simulation Statistics   ----------
