
---------- Begin Simulation Statistics ----------
simSeconds                                   0.104234                       # Number of seconds simulated (Second)
simTicks                                 104234274054                       # Number of ticks simulated (Tick)
finalTick                                104234274054                       # Number of ticks from beginning of simulation (restored from checkpoints and never reset) (Tick)
simFreq                                  1000000000000                       # The number of ticks per simulated second ((Tick/Second))
hostSeconds                                   1700.52                       # Real time elapsed on the host (Second)
hostTickRate                                 61295508                       # The number of ticks simulated per host second (ticks/s) ((Tick/Second))
hostMemory                                     776456                       # Number of bytes of host memory used (Byte)
simInsts                                    434702136                       # Number of instructions simulated (Count)
simOps                                      807001767                       # Number of ops (including micro ops) simulated (Count)
hostInstRate                                   255629                       # Simulator instruction rate (inst/s) ((Count/Second))
hostOpRate                                     474562                       # Simulator op (including micro ops) rate (op/s) ((Count/Second))
system.clk_domain.clock                          1000                       # Clock period in ticks (Tick)
system.cpu.numCycles                        313015839                       # Number of cpu cycles simulated (Cycle)
system.cpu.numWorkItemsStarted                      0                       # Number of work items this cpu started (Count)
system.cpu.numWorkItemsCompleted                    0                       # Number of work items this cpu completed (Count)
system.cpu.instsAdded                       823336990                       # Number of instructions added to the IQ (excludes non-spec) (Count)
system.cpu.nonSpecInstsAdded                      799                       # Number of non-speculative instructions added to the IQ (Count)
system.cpu.instsIssued                      821945380                       # Number of instructions issued (Count)
system.cpu.squashedInstsIssued                   4837                       # Number of squashed instructions issued (Count)
system.cpu.squashedInstsExamined             16336016                       # Number of squashed instructions iterated over during squash; mainly for profiling (Count)
system.cpu.squashedOperandsExamined          14941586                       # Number of squashed operands that are examined and possibly removed from graph (Count)
system.cpu.squashedNonSpecRemoved                 301                       # Number of squashed non-spec instructions that were removed (Count)
system.cpu.numIssuedDist::samples           312787803                       # Number of insts issued each cycle (Count)
system.cpu.numIssuedDist::mean               2.627805                       # Number of insts issued each cycle (Count)
system.cpu.numIssuedDist::stdev              1.565863                       # Number of insts issued each cycle (Count)
system.cpu.numIssuedDist::underflows                0      0.00%      0.00% # Number of insts issued each cycle (Count)
system.cpu.numIssuedDist::0                  24299088      7.77%      7.77% # Number of insts issued each cycle (Count)
system.cpu.numIssuedDist::1                  61714269     19.73%     27.50% # Number of insts issued each cycle (Count)
system.cpu.numIssuedDist::2                  64641470     20.67%     48.17% # Number of insts issued each cycle (Count)
system.cpu.numIssuedDist::3                  58811716     18.80%     66.97% # Number of insts issued each cycle (Count)
system.cpu.numIssuedDist::4                  81823261     26.16%     93.13% # Number of insts issued each cycle (Count)
system.cpu.numIssuedDist::5                   7252752      2.32%     95.45% # Number of insts issued each cycle (Count)
system.cpu.numIssuedDist::6                  10079295      3.22%     98.67% # Number of insts issued each cycle (Count)
system.cpu.numIssuedDist::7                   2847167      0.91%     99.58% # Number of insts issued each cycle (Count)
system.cpu.numIssuedDist::8                   1318785      0.42%    100.00% # Number of insts issued each cycle (Count)
system.cpu.numIssuedDist::overflows                 0      0.00%    100.00% # Number of insts issued each cycle (Count)
system.cpu.numIssuedDist::min_value                 0                       # Number of insts issued each cycle (Count)
system.cpu.numIssuedDist::max_value                 8                       # Number of insts issued each cycle (Count)
system.cpu.numIssuedDist::total             312787803                       # Number of insts issued each cycle (Count)
system.cpu.statFuBusy::No_OpClass                   0      0.00%      0.00% # attempts to use FU when none available (Count)
system.cpu.statFuBusy::IntAlu                 1083944     79.64%     79.64% # attempts to use FU when none available (Count)
system.cpu.statFuBusy::IntMult                      0      0.00%     79.64% # attempts to use FU when none available (Count)
system.cpu.statFuBusy::IntDiv                       0      0.00%     79.64% # attempts to use FU when none available (Count)
system.cpu.statFuBusy::FloatAdd                     0      0.00%     79.64% # attempts to use FU when none available (Count)
system.cpu.statFuBusy::FloatCmp                     0      0.00%     79.64% # attempts to use FU when none available (Count)
system.cpu.statFuBusy::FloatCvt                     0      0.00%     79.64% # attempts to use FU when none available (Count)
system.cpu.statFuBusy::FloatMult                    0      0.00%     79.64% # attempts to use FU when none available (Count)
system.cpu.statFuBusy::FloatMultAcc                 0      0.00%     79.64% # attempts to use FU when none available (Count)
system.cpu.statFuBusy::FloatDiv                     0      0.00%     79.64% # attempts to use FU when none available (Count)
system.cpu.statFuBusy::FloatMisc                    0      0.00%     79.64% # attempts to use FU when none available (Count)
system.cpu.statFuBusy::FloatSqrt                    0      0.00%     79.64% # attempts to use FU when none available (Count)
system.cpu.statFuBusy::SimdAdd                      1      0.00%     79.64% # attempts to use FU when none available (Count)
system.cpu.statFuBusy::SimdAddAcc                   0      0.00%     79.64% # attempts to use FU when none available (Count)
system.cpu.statFuBusy::SimdAlu                     48      0.00%     79.64% # attempts to use FU when none available (Count)
system.cpu.statFuBusy::SimdCmp                      3      0.00%     79.64% # attempts to use FU when none available (Count)
system.cpu.statFuBusy::SimdCvt                    132      0.01%     79.65% # attempts to use FU when none available (Count)
system.cpu.statFuBusy::SimdMisc                    13      0.00%     79.65% # attempts to use FU when none available (Count)
system.cpu.statFuBusy::SimdMult                     0      0.00%     79.65% # attempts to use FU when none available (Count)
system.cpu.statFuBusy::SimdMultAcc                  0      0.00%     79.65% # attempts to use FU when none available (Count)
system.cpu.statFuBusy::SimdShift                   23      0.00%     79.65% # attempts to use FU when none available (Count)
system.cpu.statFuBusy::SimdShiftAcc                 0      0.00%     79.65% # attempts to use FU when none available (Count)
system.cpu.statFuBusy::SimdDiv                      0      0.00%     79.65% # attempts to use FU when none available (Count)
system.cpu.statFuBusy::SimdSqrt                     0      0.00%     79.65% # attempts to use FU when none available (Count)
system.cpu.statFuBusy::SimdFloatAdd               106      0.01%     79.66% # attempts to use FU when none available (Count)
system.cpu.statFuBusy::SimdFloatAlu                 0      0.00%     79.66% # attempts to use FU when none available (Count)
system.cpu.statFuBusy::SimdFloatCmp                 0      0.00%     79.66% # attempts to use FU when none available (Count)
system.cpu.statFuBusy::SimdFloatCvt                 0      0.00%     79.66% # attempts to use FU when none available (Count)
system.cpu.statFuBusy::SimdFloatDiv                 0      0.00%     79.66% # attempts to use FU when none available (Count)
system.cpu.statFuBusy::SimdFloatMisc                0      0.00%     79.66% # attempts to use FU when none available (Count)
system.cpu.statFuBusy::SimdFloatMult           251175     18.45%     98.11% # attempts to use FU when none available (Count)
system.cpu.statFuBusy::SimdFloatMultAcc             0      0.00%     98.11% # attempts to use FU when none available (Count)
system.cpu.statFuBusy::SimdFloatSqrt                0      0.00%     98.11% # attempts to use FU when none available (Count)
system.cpu.statFuBusy::SimdReduceAdd                0      0.00%     98.11% # attempts to use FU when none available (Count)
system.cpu.statFuBusy::SimdReduceAlu                0      0.00%     98.11% # attempts to use FU when none available (Count)
system.cpu.statFuBusy::SimdReduceCmp                0      0.00%     98.11% # attempts to use FU when none available (Count)
system.cpu.statFuBusy::SimdFloatReduceAdd            0      0.00%     98.11% # attempts to use FU when none available (Count)
system.cpu.statFuBusy::SimdFloatReduceCmp            0      0.00%     98.11% # attempts to use FU when none available (Count)
system.cpu.statFuBusy::SimdAes                      0      0.00%     98.11% # attempts to use FU when none available (Count)
system.cpu.statFuBusy::SimdAesMix                   0      0.00%     98.11% # attempts to use FU when none available (Count)
system.cpu.statFuBusy::SimdSha1Hash                 0      0.00%     98.11% # attempts to use FU when none available (Count)
system.cpu.statFuBusy::SimdSha1Hash2                0      0.00%     98.11% # attempts to use FU when none available (Count)
system.cpu.statFuBusy::SimdSha256Hash               0      0.00%     98.11% # attempts to use FU when none available (Count)
system.cpu.statFuBusy::SimdSha256Hash2              0      0.00%     98.11% # attempts to use FU when none available (Count)
system.cpu.statFuBusy::SimdShaSigma2                0      0.00%     98.11% # attempts to use FU when none available (Count)
system.cpu.statFuBusy::SimdShaSigma3                0      0.00%     98.11% # attempts to use FU when none available (Count)
system.cpu.statFuBusy::SimdPredAlu                  0      0.00%     98.11% # attempts to use FU when none available (Count)
system.cpu.statFuBusy::MemRead                  12789      0.94%     99.05% # attempts to use FU when none available (Count)
system.cpu.statFuBusy::MemWrite                 12182      0.89%     99.95% # attempts to use FU when none available (Count)
system.cpu.statFuBusy::FloatMemRead               631      0.05%     99.99% # attempts to use FU when none available (Count)
system.cpu.statFuBusy::FloatMemWrite               86      0.01%    100.00% # attempts to use FU when none available (Count)
system.cpu.statFuBusy::IprAccess                    0      0.00%    100.00% # attempts to use FU when none available (Count)
system.cpu.statFuBusy::InstPrefetch                 0      0.00%    100.00% # attempts to use FU when none available (Count)
system.cpu.statIssuedInstType_0::No_OpClass      4312202      0.52%      0.52% # Number of instructions issued per FU type, per thread (Count)
system.cpu.statIssuedInstType_0::IntAlu     501663435     61.03%     61.56% # Number of instructions issued per FU type, per thread (Count)
system.cpu.statIssuedInstType_0::IntMult      1328763      0.16%     61.72% # Number of instructions issued per FU type, per thread (Count)
system.cpu.statIssuedInstType_0::IntDiv      14806042      1.80%     63.52% # Number of instructions issued per FU type, per thread (Count)
system.cpu.statIssuedInstType_0::FloatAdd     50909304      6.19%     69.72% # Number of instructions issued per FU type, per thread (Count)
system.cpu.statIssuedInstType_0::FloatCmp            0      0.00%     69.72% # Number of instructions issued per FU type, per thread (Count)
system.cpu.statIssuedInstType_0::FloatCvt           96      0.00%     69.72% # Number of instructions issued per FU type, per thread (Count)
system.cpu.statIssuedInstType_0::FloatMult            0      0.00%     69.72% # Number of instructions issued per FU type, per thread (Count)
system.cpu.statIssuedInstType_0::FloatMultAcc            0      0.00%     69.72% # Number of instructions issued per FU type, per thread (Count)
system.cpu.statIssuedInstType_0::FloatDiv            0      0.00%     69.72% # Number of instructions issued per FU type, per thread (Count)
system.cpu.statIssuedInstType_0::FloatMisc            0      0.00%     69.72% # Number of instructions issued per FU type, per thread (Count)
system.cpu.statIssuedInstType_0::FloatSqrt            0      0.00%     69.72% # Number of instructions issued per FU type, per thread (Count)
system.cpu.statIssuedInstType_0::SimdAdd         1429      0.00%     69.72% # Number of instructions issued per FU type, per thread (Count)
system.cpu.statIssuedInstType_0::SimdAddAcc            0      0.00%     69.72% # Number of instructions issued per FU type, per thread (Count)
system.cpu.statIssuedInstType_0::SimdAlu      6437757      0.78%     70.50% # Number of instructions issued per FU type, per thread (Count)
system.cpu.statIssuedInstType_0::SimdCmp           34      0.00%     70.50% # Number of instructions issued per FU type, per thread (Count)
system.cpu.statIssuedInstType_0::SimdCvt         3845      0.00%     70.50% # Number of instructions issued per FU type, per thread (Count)
system.cpu.statIssuedInstType_0::SimdMisc       265077      0.03%     70.53% # Number of instructions issued per FU type, per thread (Count)
system.cpu.statIssuedInstType_0::SimdMult            0      0.00%     70.53% # Number of instructions issued per FU type, per thread (Count)
system.cpu.statIssuedInstType_0::SimdMultAcc            0      0.00%     70.53% # Number of instructions issued per FU type, per thread (Count)
system.cpu.statIssuedInstType_0::SimdShift         1309      0.00%     70.53% # Number of instructions issued per FU type, per thread (Count)
system.cpu.statIssuedInstType_0::SimdShiftAcc            0      0.00%     70.53% # Number of instructions issued per FU type, per thread (Count)
system.cpu.statIssuedInstType_0::SimdDiv            0      0.00%     70.53% # Number of instructions issued per FU type, per thread (Count)
system.cpu.statIssuedInstType_0::SimdSqrt            0      0.00%     70.53% # Number of instructions issued per FU type, per thread (Count)
system.cpu.statIssuedInstType_0::SimdFloatAdd     44876414      5.46%     75.99% # Number of instructions issued per FU type, per thread (Count)
system.cpu.statIssuedInstType_0::SimdFloatAlu            0      0.00%     75.99% # Number of instructions issued per FU type, per thread (Count)
system.cpu.statIssuedInstType_0::SimdFloatCmp            0      0.00%     75.99% # Number of instructions issued per FU type, per thread (Count)
system.cpu.statIssuedInstType_0::SimdFloatCvt       262336      0.03%     76.02% # Number of instructions issued per FU type, per thread (Count)
system.cpu.statIssuedInstType_0::SimdFloatDiv       393935      0.05%     76.07% # Number of instructions issued per FU type, per thread (Count)
system.cpu.statIssuedInstType_0::SimdFloatMisc            0      0.00%     76.07% # Number of instructions issued per FU type, per thread (Count)
system.cpu.statIssuedInstType_0::SimdFloatMult     44634091      5.43%     81.50% # Number of instructions issued per FU type, per thread (Count)
system.cpu.statIssuedInstType_0::SimdFloatMultAcc            0      0.00%     81.50% # Number of instructions issued per FU type, per thread (Count)
system.cpu.statIssuedInstType_0::SimdFloatSqrt            1      0.00%     81.50% # Number of instructions issued per FU type, per thread (Count)
system.cpu.statIssuedInstType_0::SimdReduceAdd            0      0.00%     81.50% # Number of instructions issued per FU type, per thread (Count)
system.cpu.statIssuedInstType_0::SimdReduceAlu            0      0.00%     81.50% # Number of instructions issued per FU type, per thread (Count)
system.cpu.statIssuedInstType_0::SimdReduceCmp            0      0.00%     81.50% # Number of instructions issued per FU type, per thread (Count)
system.cpu.statIssuedInstType_0::SimdFloatReduceAdd            0      0.00%     81.50% # Number of instructions issued per FU type, per thread (Count)
system.cpu.statIssuedInstType_0::SimdFloatReduceCmp            0      0.00%     81.50% # Number of instructions issued per FU type, per thread (Count)
system.cpu.statIssuedInstType_0::SimdAes            0      0.00%     81.50% # Number of instructions issued per FU type, per thread (Count)
system.cpu.statIssuedInstType_0::SimdAesMix            0      0.00%     81.50% # Number of instructions issued per FU type, per thread (Count)
system.cpu.statIssuedInstType_0::SimdSha1Hash            0      0.00%     81.50% # Number of instructions issued per FU type, per thread (Count)
system.cpu.statIssuedInstType_0::SimdSha1Hash2            0      0.00%     81.50% # Number of instructions issued per FU type, per thread (Count)
system.cpu.statIssuedInstType_0::SimdSha256Hash            0      0.00%     81.50% # Number of instructions issued per FU type, per thread (Count)
system.cpu.statIssuedInstType_0::SimdSha256Hash2            0      0.00%     81.50% # Number of instructions issued per FU type, per thread (Count)
system.cpu.statIssuedInstType_0::SimdShaSigma2            0      0.00%     81.50% # Number of instructions issued per FU type, per thread (Count)
system.cpu.statIssuedInstType_0::SimdShaSigma3            0      0.00%     81.50% # Number of instructions issued per FU type, per thread (Count)
system.cpu.statIssuedInstType_0::SimdPredAlu            0      0.00%     81.50% # Number of instructions issued per FU type, per thread (Count)
system.cpu.statIssuedInstType_0::MemRead      8059233      0.98%     82.48% # Number of instructions issued per FU type, per thread (Count)
system.cpu.statIssuedInstType_0::MemWrite      2587402      0.31%     82.80% # Number of instructions issued per FU type, per thread (Count)
system.cpu.statIssuedInstType_0::FloatMemRead     96129281     11.70%     94.49% # Number of instructions issued per FU type, per thread (Count)
system.cpu.statIssuedInstType_0::FloatMemWrite     45273394      5.51%    100.00% # Number of instructions issued per FU type, per thread (Count)
system.cpu.statIssuedInstType_0::IprAccess            0      0.00%    100.00% # Number of instructions issued per FU type, per thread (Count)
system.cpu.statIssuedInstType_0::InstPrefetch            0      0.00%    100.00% # Number of instructions issued per FU type, per thread (Count)
system.cpu.statIssuedInstType_0::total      821945380                       # Number of instructions issued per FU type, per thread (Count)
system.cpu.issueRate                         2.625891                       # Inst issue rate ((Count/Cycle))
system.cpu.fuBusy                             1361133                       # FU busy when requested (Count)
system.cpu.fuBusyRate                        0.001656                       # FU busy rate (busy events/executed inst) ((Count/Count))
system.cpu.intInstQueueReads               1379413453                       # Number of integer instruction queue reads (Count)
system.cpu.intInstQueueWrites               542104544                       # Number of integer instruction queue writes (Count)
system.cpu.intInstQueueWakeupAccesses       529734106                       # Number of integer instruction queue wakeup accesses (Count)
system.cpu.fpInstQueueReads                 578631080                       # Number of floating instruction queue reads (Count)
system.cpu.fpInstQueueWrites                297571755                       # Number of floating instruction queue writes (Count)
system.cpu.fpInstQueueWakeupAccesses        283276752                       # Number of floating instruction queue wakeup accesses (Count)
system.cpu.vecInstQueueReads                        0                       # Number of vector instruction queue reads (Count)
system.cpu.vecInstQueueWrites                       0                       # Number of vector instruction queue writes (Count)
system.cpu.vecInstQueueWakeupAccesses               0                       # Number of vector instruction queue wakeup accesses (Count)
system.cpu.intAluAccesses                   529552944                       # Number of integer alu accesses (Count)
system.cpu.fpAluAccesses                    289441367                       # Number of floating point alu accesses (Count)
system.cpu.vecAluAccesses                           0                       # Number of vector alu accesses (Count)
system.cpu.numInsts                         815896922                       # Number of executed instructions (Count)
system.cpu.numLoadInsts                     103975347                       # Number of load instructions executed (Count)
system.cpu.numSquashedInsts                   6048458                       # Number of squashed instructions skipped in execute (Count)
system.cpu.numSwp                                   0                       # Number of swp insts executed (Count)
system.cpu.numNop                                   0                       # Number of nop insts executed (Count)
system.cpu.numRefs                          151833603                       # Number of memory reference insts executed (Count)
system.cpu.numBranches                       57613490                       # Number of branches executed (Count)
system.cpu.numStoreInsts                     47858256                       # Number of stores executed (Count)
system.cpu.numRate                           2.606568                       # Inst execution rate ((Count/Cycle))
system.cpu.timesIdled                            1206                       # Number of times that the entire CPU went into an idle state and unscheduled itself (Count)
system.cpu.idleCycles                          228036                       # Total number of cycles that the CPU has spent unscheduled due to idling (Cycle)
system.cpu.committedInsts                   434702136                       # Number of Instructions Simulated (Count)
system.cpu.committedOps                     807001767                       # Number of Ops (including micro ops) Simulated (Count)
system.cpu.cpi                               0.720070                       # CPI: Cycles Per Instruction ((Cycle/Count))
system.cpu.totalCpi                          0.720070                       # CPI: Total CPI of All Threads ((Cycle/Count))
system.cpu.ipc                               1.388754                       # IPC: Instructions Per Cycle ((Count/Cycle))
system.cpu.totalIpc                          1.388754                       # IPC: Total IPC of All Threads ((Count/Cycle))
system.cpu.intRegfileReads                  815075435                       # Number of integer regfile reads (Count)
system.cpu.intRegfileWrites                 435114715                       # Number of integer regfile writes (Count)
system.cpu.fpRegfileReads                   328659775                       # Number of floating regfile reads (Count)
system.cpu.fpRegfileWrites                  238169427                       # Number of floating regfile writes (Count)
system.cpu.ccRegfileReads                   383710522                       # number of cc regfile reads (Count)
system.cpu.ccRegfileWrites                  336939022                       # number of cc regfile writes (Count)
system.cpu.miscRegfileReads                 264811994                       # number of misc regfile reads (Count)
system.cpu.miscRegfileWrites                       54                       # number of misc regfile writes (Count)
system.cpu.MemDepUnit__0.insertedLoads      104431989                       # Number of loads inserted to the mem dependence unit. (Count)
system.cpu.MemDepUnit__0.insertedStores      48038360                       # Number of stores inserted to the mem dependence unit. (Count)
system.cpu.MemDepUnit__0.conflictingLoads     10651588                       # Number of conflicting loads. (Count)
system.cpu.MemDepUnit__0.conflictingStores      9942340                       # Number of conflicting stores. (Count)
system.cpu.MemDepUnit__1.insertedLoads              0                       # Number of loads inserted to the mem dependence unit. (Count)
system.cpu.MemDepUnit__1.insertedStores             0                       # Number of stores inserted to the mem dependence unit. (Count)
system.cpu.MemDepUnit__1.conflictingLoads            0                       # Number of conflicting loads. (Count)
system.cpu.MemDepUnit__1.conflictingStores            0                       # Number of conflicting stores. (Count)
system.cpu.MemDepUnit__2.insertedLoads              0                       # Number of loads inserted to the mem dependence unit. (Count)
system.cpu.MemDepUnit__2.insertedStores             0                       # Number of stores inserted to the mem dependence unit. (Count)
system.cpu.MemDepUnit__2.conflictingLoads            0                       # Number of conflicting loads. (Count)
system.cpu.MemDepUnit__2.conflictingStores            0                       # Number of conflicting stores. (Count)
system.cpu.MemDepUnit__3.insertedLoads              0                       # Number of loads inserted to the mem dependence unit. (Count)
system.cpu.MemDepUnit__3.insertedStores             0                       # Number of stores inserted to the mem dependence unit. (Count)
system.cpu.MemDepUnit__3.conflictingLoads            0                       # Number of conflicting loads. (Count)
system.cpu.MemDepUnit__3.conflictingStores            0                       # Number of conflicting stores. (Count)
system.cpu.branchPred.lookups                60926351                       # Number of BP lookups (Count)
system.cpu.branchPred.condPredicted          58513155                       # Number of conditional branches predicted (Count)
system.cpu.branchPred.condIncorrect           2956190                       # Number of conditional branches incorrect (Count)
system.cpu.branchPred.BTBLookups             52428659                       # Number of BTB lookups (Count)
system.cpu.branchPred.BTBHits                52425624                       # Number of BTB hits (Count)
system.cpu.branchPred.BTBHitRatio            0.999942                       # BTB Hit Ratio (Ratio)
system.cpu.branchPred.RASUsed                  802080                       # Number of times the RAS was used to get a target. (Count)
system.cpu.branchPred.RASIncorrect                  9                       # Number of incorrect RAS predictions. (Count)
system.cpu.branchPred.indirectLookups          267058                       # Number of indirect predictor lookups. (Count)
system.cpu.branchPred.indirectHits             263559                       # Number of indirect target hits. (Count)
system.cpu.branchPred.indirectMisses             3499                       # Number of indirect misses. (Count)
system.cpu.branchPred.indirectMispredicted          688                       # Number of mispredicted indirect branches. (Count)
system.cpu.commit.commitSquashedInsts        16308546                       # The number of squashed insts skipped by commit (Count)
system.cpu.commit.commitNonSpecStalls             498                       # The number of times commit has been forced to stall to communicate backwards (Count)
system.cpu.commit.branchMispredicts           2955993                       # The number of times a branch was mispredicted (Count)
system.cpu.commit.numCommittedDist::samples    309355531                       # Number of insts commited each cycle (Count)
system.cpu.commit.numCommittedDist::mean     2.608655                       # Number of insts commited each cycle (Count)
system.cpu.commit.numCommittedDist::stdev     2.376515                       # Number of insts commited each cycle (Count)
system.cpu.commit.numCommittedDist::underflows            0      0.00%      0.00% # Number of insts commited each cycle (Count)
system.cpu.commit.numCommittedDist::0        38056512     12.30%     12.30% # Number of insts commited each cycle (Count)
system.cpu.commit.numCommittedDist::1       120933016     39.09%     51.39% # Number of insts commited each cycle (Count)
system.cpu.commit.numCommittedDist::2        35535575     11.49%     62.88% # Number of insts commited each cycle (Count)
system.cpu.commit.numCommittedDist::3         9188304      2.97%     65.85% # Number of insts commited each cycle (Count)
system.cpu.commit.numCommittedDist::4        42552263     13.76%     79.61% # Number of insts commited each cycle (Count)
system.cpu.commit.numCommittedDist::5         5172813      1.67%     81.28% # Number of insts commited each cycle (Count)
system.cpu.commit.numCommittedDist::6        34704269     11.22%     92.50% # Number of insts commited each cycle (Count)
system.cpu.commit.numCommittedDist::7         2568274      0.83%     93.33% # Number of insts commited each cycle (Count)
system.cpu.commit.numCommittedDist::8        20644505      6.67%    100.00% # Number of insts commited each cycle (Count)
system.cpu.commit.numCommittedDist::overflows            0      0.00%    100.00% # Number of insts commited each cycle (Count)
system.cpu.commit.numCommittedDist::min_value            0                       # Number of insts commited each cycle (Count)
system.cpu.commit.numCommittedDist::max_value            8                       # Number of insts commited each cycle (Count)
system.cpu.commit.numCommittedDist::total    309355531                       # Number of insts commited each cycle (Count)
system.cpu.commit.instsCommitted            434702136                       # Number of instructions committed (Count)
system.cpu.commit.opsCommitted              807001767                       # Number of ops (including micro ops) committed (Count)
system.cpu.commit.memRefs                   148827487                       # Number of memory references committed (Count)
system.cpu.commit.loads                     101000648                       # Number of loads committed (Count)
system.cpu.commit.amos                              0                       # Number of atomic instructions committed (Count)
system.cpu.commit.membars                         296                       # Number of memory barriers committed (Count)
system.cpu.commit.branches                   57376853                       # Number of branches committed (Count)
system.cpu.commit.vectorInstructions                0                       # Number of committed Vector instructions. (Count)
system.cpu.commit.floating                  282655757                       # Number of committed floating point instructions. (Count)
system.cpu.commit.integer                   656657244                       # Number of committed integer instructions. (Count)
system.cpu.commit.functionCalls                800005                       # Number of function calls committed. (Count)
system.cpu.commit.committedInstType_0::No_OpClass      4098617      0.51%      0.51% # Class of committed instruction (Count)
system.cpu.commit.committedInstType_0::IntAlu    493565749     61.16%     61.67% # Class of committed instruction (Count)
system.cpu.commit.committedInstType_0::IntMult      1326865      0.16%     61.83% # Class of committed instruction (Count)
system.cpu.commit.committedInstType_0::IntDiv     14800141      1.83%     63.67% # Class of committed instruction (Count)
system.cpu.commit.committedInstType_0::FloatAdd     47739833      5.92%     69.58% # Class of committed instruction (Count)
system.cpu.commit.committedInstType_0::FloatCmp            0      0.00%     69.58% # Class of committed instruction (Count)
system.cpu.commit.committedInstType_0::FloatCvt           96      0.00%     69.58% # Class of committed instruction (Count)
system.cpu.commit.committedInstType_0::FloatMult            0      0.00%     69.58% # Class of committed instruction (Count)
system.cpu.commit.committedInstType_0::FloatMultAcc            0      0.00%     69.58% # Class of committed instruction (Count)
system.cpu.commit.committedInstType_0::FloatDiv            0      0.00%     69.58% # Class of committed instruction (Count)
system.cpu.commit.committedInstType_0::FloatMisc            0      0.00%     69.58% # Class of committed instruction (Count)
system.cpu.commit.committedInstType_0::FloatSqrt            0      0.00%     69.58% # Class of committed instruction (Count)
system.cpu.commit.committedInstType_0::SimdAdd          938      0.00%     69.58% # Class of committed instruction (Count)
system.cpu.commit.committedInstType_0::SimdAddAcc            0      0.00%     69.58% # Class of committed instruction (Count)
system.cpu.commit.committedInstType_0::SimdAlu      6240204      0.77%     70.36% # Class of committed instruction (Count)
system.cpu.commit.committedInstType_0::SimdCmp           34      0.00%     70.36% # Class of committed instruction (Count)
system.cpu.commit.committedInstType_0::SimdCvt         2334      0.00%     70.36% # Class of committed instruction (Count)
system.cpu.commit.committedInstType_0::SimdMisc       264419      0.03%     70.39% # Class of committed instruction (Count)
system.cpu.commit.committedInstType_0::SimdMult            0      0.00%     70.39% # Class of committed instruction (Count)
system.cpu.commit.committedInstType_0::SimdMultAcc            0      0.00%     70.39% # Class of committed instruction (Count)
system.cpu.commit.committedInstType_0::SimdShift          507      0.00%     70.39% # Class of committed instruction (Count)
system.cpu.commit.committedInstType_0::SimdShiftAcc            0      0.00%     70.39% # Class of committed instruction (Count)
system.cpu.commit.committedInstType_0::SimdDiv            0      0.00%     70.39% # Class of committed instruction (Count)
system.cpu.commit.committedInstType_0::SimdSqrt            0      0.00%     70.39% # Class of committed instruction (Count)
system.cpu.commit.committedInstType_0::SimdFloatAdd     44870528      5.56%     75.95% # Class of committed instruction (Count)
system.cpu.commit.committedInstType_0::SimdFloatAlu            0      0.00%     75.95% # Class of committed instruction (Count)
system.cpu.commit.committedInstType_0::SimdFloatCmp            0      0.00%     75.95% # Class of committed instruction (Count)
system.cpu.commit.committedInstType_0::SimdFloatCvt       262286      0.03%     75.98% # Class of committed instruction (Count)
system.cpu.commit.committedInstType_0::SimdFloatDiv       392960      0.05%     76.03% # Class of committed instruction (Count)
system.cpu.commit.committedInstType_0::SimdFloatMisc            0      0.00%     76.03% # Class of committed instruction (Count)
system.cpu.commit.committedInstType_0::SimdFloatMult     44608768      5.53%     81.56% # Class of committed instruction (Count)
system.cpu.commit.committedInstType_0::SimdFloatMultAcc            0      0.00%     81.56% # Class of committed instruction (Count)
system.cpu.commit.committedInstType_0::SimdFloatSqrt            1      0.00%     81.56% # Class of committed instruction (Count)
system.cpu.commit.committedInstType_0::SimdReduceAdd            0      0.00%     81.56% # Class of committed instruction (Count)
system.cpu.commit.committedInstType_0::SimdReduceAlu            0      0.00%     81.56% # Class of committed instruction (Count)
system.cpu.commit.committedInstType_0::SimdReduceCmp            0      0.00%     81.56% # Class of committed instruction (Count)
system.cpu.commit.committedInstType_0::SimdFloatReduceAdd            0      0.00%     81.56% # Class of committed instruction (Count)
system.cpu.commit.committedInstType_0::SimdFloatReduceCmp            0      0.00%     81.56% # Class of committed instruction (Count)
system.cpu.commit.committedInstType_0::SimdAes            0      0.00%     81.56% # Class of committed instruction (Count)
system.cpu.commit.committedInstType_0::SimdAesMix            0      0.00%     81.56% # Class of committed instruction (Count)
system.cpu.commit.committedInstType_0::SimdSha1Hash            0      0.00%     81.56% # Class of committed instruction (Count)
system.cpu.commit.committedInstType_0::SimdSha1Hash2            0      0.00%     81.56% # Class of committed instruction (Count)
system.cpu.commit.committedInstType_0::SimdSha256Hash            0      0.00%     81.56% # Class of committed instruction (Count)
system.cpu.commit.committedInstType_0::SimdSha256Hash2            0      0.00%     81.56% # Class of committed instruction (Count)
system.cpu.commit.committedInstType_0::SimdShaSigma2            0      0.00%     81.56% # Class of committed instruction (Count)
system.cpu.commit.committedInstType_0::SimdShaSigma3            0      0.00%     81.56% # Class of committed instruction (Count)
system.cpu.commit.committedInstType_0::SimdPredAlu            0      0.00%     81.56% # Class of committed instruction (Count)
system.cpu.commit.committedInstType_0::MemRead      7994630      0.99%     82.55% # Class of committed instruction (Count)
system.cpu.commit.committedInstType_0::MemWrite      2560646      0.32%     82.87% # Class of committed instruction (Count)
system.cpu.commit.committedInstType_0::FloatMemRead     93006018     11.52%     94.39% # Class of committed instruction (Count)
system.cpu.commit.committedInstType_0::FloatMemWrite     45266193      5.61%    100.00% # Class of committed instruction (Count)
system.cpu.commit.committedInstType_0::IprAccess            0      0.00%    100.00% # Class of committed instruction (Count)
system.cpu.commit.committedInstType_0::InstPrefetch            0      0.00%    100.00% # Class of committed instruction (Count)
system.cpu.commit.committedInstType_0::total    807001767                       # Class of committed instruction (Count)
system.cpu.commit.commitEligibleSamples      20644505                       # number cycles where commit BW limit reached (Cycle)
system.cpu.dcache.demandHits::cpu.data      148454043                       # number of demand (read+write) hits (Count)
system.cpu.dcache.demandHits::total         148454043                       # number of demand (read+write) hits (Count)
system.cpu.dcache.overallHits::cpu.data     148454043                       # number of overall hits (Count)
system.cpu.dcache.overallHits::total        148454043                       # number of overall hits (Count)
system.cpu.dcache.demandMisses::cpu.data       875189                       # number of demand (read+write) misses (Count)
system.cpu.dcache.demandMisses::total          875189                       # number of demand (read+write) misses (Count)
system.cpu.dcache.overallMisses::cpu.data       875189                       # number of overall misses (Count)
system.cpu.dcache.overallMisses::total         875189                       # number of overall misses (Count)
system.cpu.dcache.demandMissLatency::cpu.data  11106704838                       # number of demand (read+write) miss ticks (Tick)
system.cpu.dcache.demandMissLatency::total  11106704838                       # number of demand (read+write) miss ticks (Tick)
system.cpu.dcache.overallMissLatency::cpu.data  11106704838                       # number of overall miss ticks (Tick)
system.cpu.dcache.overallMissLatency::total  11106704838                       # number of overall miss ticks (Tick)
system.cpu.dcache.demandAccesses::cpu.data    149329232                       # number of demand (read+write) accesses (Count)
system.cpu.dcache.demandAccesses::total     149329232                       # number of demand (read+write) accesses (Count)
system.cpu.dcache.overallAccesses::cpu.data    149329232                       # number of overall (read+write) accesses (Count)
system.cpu.dcache.overallAccesses::total    149329232                       # number of overall (read+write) accesses (Count)
system.cpu.dcache.demandMissRate::cpu.data     0.005861                       # miss rate for demand accesses (Ratio)
system.cpu.dcache.demandMissRate::total      0.005861                       # miss rate for demand accesses (Ratio)
system.cpu.dcache.overallMissRate::cpu.data     0.005861                       # miss rate for overall accesses (Ratio)
system.cpu.dcache.overallMissRate::total     0.005861                       # miss rate for overall accesses (Ratio)
system.cpu.dcache.demandAvgMissLatency::cpu.data 12690.635780                       # average overall miss latency in ticks ((Tick/Count))
system.cpu.dcache.demandAvgMissLatency::total 12690.635780                       # average overall miss latency in ticks ((Tick/Count))
system.cpu.dcache.overallAvgMissLatency::cpu.data 12690.635780                       # average overall miss latency ((Tick/Count))
system.cpu.dcache.overallAvgMissLatency::total 12690.635780                       # average overall miss latency ((Tick/Count))
system.cpu.dcache.blockedCycles::no_mshrs        32164                       # number of cycles access was blocked (Cycle)
system.cpu.dcache.blockedCycles::no_targets           94                       # number of cycles access was blocked (Cycle)
system.cpu.dcache.blockedCauses::no_mshrs          890                       # number of times access was blocked (Count)
system.cpu.dcache.blockedCauses::no_targets            4                       # number of times access was blocked (Count)
system.cpu.dcache.avgBlocked::no_mshrs      36.139326                       # average number of cycles each access was blocked ((Cycle/Count))
system.cpu.dcache.avgBlocked::no_targets    23.500000                       # average number of cycles each access was blocked ((Cycle/Count))
system.cpu.dcache.writebacks::writebacks       796706                       # number of writebacks (Count)
system.cpu.dcache.writebacks::total            796706                       # number of writebacks (Count)
system.cpu.dcache.demandMshrHits::cpu.data        63480                       # number of demand (read+write) MSHR hits (Count)
system.cpu.dcache.demandMshrHits::total         63480                       # number of demand (read+write) MSHR hits (Count)
system.cpu.dcache.overallMshrHits::cpu.data        63480                       # number of overall MSHR hits (Count)
system.cpu.dcache.overallMshrHits::total        63480                       # number of overall MSHR hits (Count)
system.cpu.dcache.demandMshrMisses::cpu.data       811709                       # number of demand (read+write) MSHR misses (Count)
system.cpu.dcache.demandMshrMisses::total       811709                       # number of demand (read+write) MSHR misses (Count)
system.cpu.dcache.overallMshrMisses::cpu.data       811709                       # number of overall MSHR misses (Count)
system.cpu.dcache.overallMshrMisses::total       811709                       # number of overall MSHR misses (Count)
system.cpu.dcache.demandMshrMissLatency::cpu.data   9533705079                       # number of demand (read+write) MSHR miss ticks (Tick)
system.cpu.dcache.demandMshrMissLatency::total   9533705079                       # number of demand (read+write) MSHR miss ticks (Tick)
system.cpu.dcache.overallMshrMissLatency::cpu.data   9533705079                       # number of overall MSHR miss ticks (Tick)
system.cpu.dcache.overallMshrMissLatency::total   9533705079                       # number of overall MSHR miss ticks (Tick)
system.cpu.dcache.demandMshrMissRate::cpu.data     0.005436                       # mshr miss ratio for demand accesses (Ratio)
system.cpu.dcache.demandMshrMissRate::total     0.005436                       # mshr miss ratio for demand accesses (Ratio)
system.cpu.dcache.overallMshrMissRate::cpu.data     0.005436                       # mshr miss ratio for overall accesses (Ratio)
system.cpu.dcache.overallMshrMissRate::total     0.005436                       # mshr miss ratio for overall accesses (Ratio)
system.cpu.dcache.demandAvgMshrMissLatency::cpu.data 11745.225295                       # average overall mshr miss latency ((Tick/Count))
system.cpu.dcache.demandAvgMshrMissLatency::total 11745.225295                       # average overall mshr miss latency ((Tick/Count))
system.cpu.dcache.overallAvgMshrMissLatency::cpu.data 11745.225295                       # average overall mshr miss latency ((Tick/Count))
system.cpu.dcache.overallAvgMshrMissLatency::total 11745.225295                       # average overall mshr miss latency ((Tick/Count))
system.cpu.dcache.replacements                 802894                       # number of replacements (Count)
system.cpu.dcache.LockedRMWReadReq.hits::cpu.data          145                       # number of LockedRMWReadReq hits (Count)
system.cpu.dcache.LockedRMWReadReq.hits::total          145                       # number of LockedRMWReadReq hits (Count)
system.cpu.dcache.LockedRMWReadReq.misses::cpu.data            3                       # number of LockedRMWReadReq misses (Count)
system.cpu.dcache.LockedRMWReadReq.misses::total            3                       # number of LockedRMWReadReq misses (Count)
system.cpu.dcache.LockedRMWReadReq.missLatency::cpu.data        25974                       # number of LockedRMWReadReq miss ticks (Tick)
system.cpu.dcache.LockedRMWReadReq.missLatency::total        25974                       # number of LockedRMWReadReq miss ticks (Tick)
system.cpu.dcache.LockedRMWReadReq.accesses::cpu.data          148                       # number of LockedRMWReadReq accesses(hits+misses) (Count)
system.cpu.dcache.LockedRMWReadReq.accesses::total          148                       # number of LockedRMWReadReq accesses(hits+misses) (Count)
system.cpu.dcache.LockedRMWReadReq.missRate::cpu.data     0.020270                       # miss rate for LockedRMWReadReq accesses (Ratio)
system.cpu.dcache.LockedRMWReadReq.missRate::total     0.020270                       # miss rate for LockedRMWReadReq accesses (Ratio)
system.cpu.dcache.LockedRMWReadReq.avgMissLatency::cpu.data         8658                       # average LockedRMWReadReq miss latency ((Tick/Count))
system.cpu.dcache.LockedRMWReadReq.avgMissLatency::total         8658                       # average LockedRMWReadReq miss latency ((Tick/Count))
system.cpu.dcache.LockedRMWReadReq.mshrMisses::cpu.data            3                       # number of LockedRMWReadReq MSHR misses (Count)
system.cpu.dcache.LockedRMWReadReq.mshrMisses::total            3                       # number of LockedRMWReadReq MSHR misses (Count)
system.cpu.dcache.LockedRMWReadReq.mshrMissLatency::cpu.data       422910                       # number of LockedRMWReadReq MSHR miss ticks (Tick)
system.cpu.dcache.LockedRMWReadReq.mshrMissLatency::total       422910                       # number of LockedRMWReadReq MSHR miss ticks (Tick)
system.cpu.dcache.LockedRMWReadReq.mshrMissRate::cpu.data     0.020270                       # mshr miss rate for LockedRMWReadReq accesses (Ratio)
system.cpu.dcache.LockedRMWReadReq.mshrMissRate::total     0.020270                       # mshr miss rate for LockedRMWReadReq accesses (Ratio)
system.cpu.dcache.LockedRMWReadReq.avgMshrMissLatency::cpu.data       140970                       # average LockedRMWReadReq mshr miss latency ((Tick/Count))
system.cpu.dcache.LockedRMWReadReq.avgMshrMissLatency::total       140970                       # average LockedRMWReadReq mshr miss latency ((Tick/Count))
system.cpu.dcache.LockedRMWWriteReq.hits::cpu.data          148                       # number of LockedRMWWriteReq hits (Count)
system.cpu.dcache.LockedRMWWriteReq.hits::total          148                       # number of LockedRMWWriteReq hits (Count)
system.cpu.dcache.LockedRMWWriteReq.accesses::cpu.data          148                       # number of LockedRMWWriteReq accesses(hits+misses) (Count)
system.cpu.dcache.LockedRMWWriteReq.accesses::total          148                       # number of LockedRMWWriteReq accesses(hits+misses) (Count)
system.cpu.dcache.ReadReq.hits::cpu.data    100669440                       # number of ReadReq hits (Count)
system.cpu.dcache.ReadReq.hits::total       100669440                       # number of ReadReq hits (Count)
system.cpu.dcache.ReadReq.misses::cpu.data       833090                       # number of ReadReq misses (Count)
system.cpu.dcache.ReadReq.misses::total        833090                       # number of ReadReq misses (Count)
system.cpu.dcache.ReadReq.missLatency::cpu.data   8082775134                       # number of ReadReq miss ticks (Tick)
system.cpu.dcache.ReadReq.missLatency::total   8082775134                       # number of ReadReq miss ticks (Tick)
system.cpu.dcache.ReadReq.accesses::cpu.data    101502530                       # number of ReadReq accesses(hits+misses) (Count)
system.cpu.dcache.ReadReq.accesses::total    101502530                       # number of ReadReq accesses(hits+misses) (Count)
system.cpu.dcache.ReadReq.missRate::cpu.data     0.008208                       # miss rate for ReadReq accesses (Ratio)
system.cpu.dcache.ReadReq.missRate::total     0.008208                       # miss rate for ReadReq accesses (Ratio)
system.cpu.dcache.ReadReq.avgMissLatency::cpu.data  9702.163192                       # average ReadReq miss latency ((Tick/Count))
system.cpu.dcache.ReadReq.avgMissLatency::total  9702.163192                       # average ReadReq miss latency ((Tick/Count))
system.cpu.dcache.ReadReq.mshrHits::cpu.data        63474                       # number of ReadReq MSHR hits (Count)
system.cpu.dcache.ReadReq.mshrHits::total        63474                       # number of ReadReq MSHR hits (Count)
system.cpu.dcache.ReadReq.mshrMisses::cpu.data       769616                       # number of ReadReq MSHR misses (Count)
system.cpu.dcache.ReadReq.mshrMisses::total       769616                       # number of ReadReq MSHR misses (Count)
system.cpu.dcache.ReadReq.mshrMissLatency::cpu.data   6538125663                       # number of ReadReq MSHR miss ticks (Tick)
system.cpu.dcache.ReadReq.mshrMissLatency::total   6538125663                       # number of ReadReq MSHR miss ticks (Tick)
system.cpu.dcache.ReadReq.mshrMissRate::cpu.data     0.007582                       # mshr miss rate for ReadReq accesses (Ratio)
system.cpu.dcache.ReadReq.mshrMissRate::total     0.007582                       # mshr miss rate for ReadReq accesses (Ratio)
system.cpu.dcache.ReadReq.avgMshrMissLatency::cpu.data  8495.308911                       # average ReadReq mshr miss latency ((Tick/Count))
system.cpu.dcache.ReadReq.avgMshrMissLatency::total  8495.308911                       # average ReadReq mshr miss latency ((Tick/Count))
system.cpu.dcache.WriteReq.hits::cpu.data     47784603                       # number of WriteReq hits (Count)
system.cpu.dcache.WriteReq.hits::total       47784603                       # number of WriteReq hits (Count)
system.cpu.dcache.WriteReq.misses::cpu.data        42099                       # number of WriteReq misses (Count)
system.cpu.dcache.WriteReq.misses::total        42099                       # number of WriteReq misses (Count)
system.cpu.dcache.WriteReq.missLatency::cpu.data   3023929704                       # number of WriteReq miss ticks (Tick)
system.cpu.dcache.WriteReq.missLatency::total   3023929704                       # number of WriteReq miss ticks (Tick)
system.cpu.dcache.WriteReq.accesses::cpu.data     47826702                       # number of WriteReq accesses(hits+misses) (Count)
system.cpu.dcache.WriteReq.accesses::total     47826702                       # number of WriteReq accesses(hits+misses) (Count)
system.cpu.dcache.WriteReq.missRate::cpu.data     0.000880                       # miss rate for WriteReq accesses (Ratio)
system.cpu.dcache.WriteReq.missRate::total     0.000880                       # miss rate for WriteReq accesses (Ratio)
system.cpu.dcache.WriteReq.avgMissLatency::cpu.data 71829.015036                       # average WriteReq miss latency ((Tick/Count))
system.cpu.dcache.WriteReq.avgMissLatency::total 71829.015036                       # average WriteReq miss latency ((Tick/Count))
system.cpu.dcache.WriteReq.mshrHits::cpu.data            6                       # number of WriteReq MSHR hits (Count)
system.cpu.dcache.WriteReq.mshrHits::total            6                       # number of WriteReq MSHR hits (Count)
system.cpu.dcache.WriteReq.mshrMisses::cpu.data        42093                       # number of WriteReq MSHR misses (Count)
system.cpu.dcache.WriteReq.mshrMisses::total        42093                       # number of WriteReq MSHR misses (Count)
system.cpu.dcache.WriteReq.mshrMissLatency::cpu.data   2995579416                       # number of WriteReq MSHR miss ticks (Tick)
system.cpu.dcache.WriteReq.mshrMissLatency::total   2995579416                       # number of WriteReq MSHR miss ticks (Tick)
system.cpu.dcache.WriteReq.mshrMissRate::cpu.data     0.000880                       # mshr miss rate for WriteReq accesses (Ratio)
system.cpu.dcache.WriteReq.mshrMissRate::total     0.000880                       # mshr miss rate for WriteReq accesses (Ratio)
system.cpu.dcache.WriteReq.avgMshrMissLatency::cpu.data 71165.738151                       # average WriteReq mshr miss latency ((Tick/Count))
system.cpu.dcache.WriteReq.avgMshrMissLatency::total 71165.738151                       # average WriteReq mshr miss latency ((Tick/Count))
system.cpu.dcache.power_state.pwrStateResidencyTicks::UNDEFINED 104234274054                       # Cumulative time (in ticks) in various power states (Tick)
system.cpu.dcache.tags.tagsInUse           511.850083                       # Average ticks per tags in use ((Tick/Count))
system.cpu.dcache.tags.totalRefs            149274136                       # Total number of references to valid blocks. (Count)
system.cpu.dcache.tags.sampledRefs             803406                       # Sample count of references to valid blocks. (Count)
system.cpu.dcache.tags.avgRefs             185.801620                       # Average number of references to valid blocks. ((Count/Count))
system.cpu.dcache.tags.warmupTick              189144                       # The tick when the warmup percentage was hit. (Tick)
system.cpu.dcache.tags.occupancies::cpu.data   511.850083                       # Average occupied blocks per tick, per requestor ((Count/Tick))
system.cpu.dcache.tags.avgOccs::cpu.data     0.999707                       # Average percentage of cache occupancy ((Ratio/Tick))
system.cpu.dcache.tags.avgOccs::total        0.999707                       # Average percentage of cache occupancy ((Ratio/Tick))
system.cpu.dcache.tags.occupanciesTaskId::1024          512                       # Occupied blocks per task id (Count)
system.cpu.dcache.tags.ageTaskId_1024::0           93                       # Occupied blocks per task id, per block age (Count)
system.cpu.dcache.tags.ageTaskId_1024::1          133                       # Occupied blocks per task id, per block age (Count)
system.cpu.dcache.tags.ageTaskId_1024::2          279                       # Occupied blocks per task id, per block age (Count)
system.cpu.dcache.tags.ageTaskId_1024::3            2                       # Occupied blocks per task id, per block age (Count)
system.cpu.dcache.tags.ageTaskId_1024::4            5                       # Occupied blocks per task id, per block age (Count)
system.cpu.dcache.tags.ratioOccsTaskId::1024            1                       # Ratio of occupied blocks and all blocks, per task id (Ratio)
system.cpu.dcache.tags.tagAccesses         1195439630                       # Number of tag accesses (Count)
system.cpu.dcache.tags.dataAccesses        1195439630                       # Number of data accesses (Count)
system.cpu.dcache.tags.power_state.pwrStateResidencyTicks::UNDEFINED 104234274054                       # Cumulative time (in ticks) in various power states (Tick)
system.cpu.decode.idleCycles                106771870                       # Number of cycles decode is idle (Cycle)
system.cpu.decode.blockedCycles              38633769                       # Number of cycles decode is blocked (Cycle)
system.cpu.decode.runCycles                 150088193                       # Number of cycles decode is running (Cycle)
system.cpu.decode.unblockCycles              14334718                       # Number of cycles decode is unblocking (Cycle)
system.cpu.decode.squashCycles                2959253                       # Number of cycles decode is squashing (Cycle)
system.cpu.decode.branchResolved             52185230                       # Number of times decode resolved a branch (Count)
system.cpu.decode.branchMispred                   894                       # Number of times decode detected a branch misprediction (Count)
system.cpu.decode.decodedInsts              852851081                       # Number of instructions handled by decode (Count)
system.cpu.decode.squashedInsts                  4205                       # Number of squashed instructions handled by decode (Count)
system.cpu.dtb_walker_cache.blockedCycles::no_mshrs            0                       # number of cycles access was blocked (Cycle)
system.cpu.dtb_walker_cache.blockedCycles::no_targets            0                       # number of cycles access was blocked (Cycle)
system.cpu.dtb_walker_cache.blockedCauses::no_mshrs            0                       # number of times access was blocked (Count)
system.cpu.dtb_walker_cache.blockedCauses::no_targets            0                       # number of times access was blocked (Count)
system.cpu.dtb_walker_cache.avgBlocked::no_mshrs          nan                       # average number of cycles each access was blocked ((Cycle/Count))
system.cpu.dtb_walker_cache.avgBlocked::no_targets          nan                       # average number of cycles each access was blocked ((Cycle/Count))
system.cpu.dtb_walker_cache.replacements            0                       # number of replacements (Count)
system.cpu.dtb_walker_cache.power_state.pwrStateResidencyTicks::UNDEFINED 104234274054                       # Cumulative time (in ticks) in various power states (Tick)
system.cpu.dtb_walker_cache.tags.tagsInUse            0                       # Average ticks per tags in use ((Tick/Count))
system.cpu.dtb_walker_cache.tags.totalRefs            0                       # Total number of references to valid blocks. (Count)
system.cpu.dtb_walker_cache.tags.sampledRefs            0                       # Sample count of references to valid blocks. (Count)
system.cpu.dtb_walker_cache.tags.avgRefs          nan                       # Average number of references to valid blocks. ((Count/Count))
system.cpu.dtb_walker_cache.tags.warmupTick            0                       # The tick when the warmup percentage was hit. (Tick)
system.cpu.dtb_walker_cache.tags.tagAccesses            0                       # Number of tag accesses (Count)
system.cpu.dtb_walker_cache.tags.dataAccesses            0                       # Number of data accesses (Count)
system.cpu.dtb_walker_cache.tags.power_state.pwrStateResidencyTicks::UNDEFINED 104234274054                       # Cumulative time (in ticks) in various power states (Tick)
system.cpu.fetch.icacheStallCycles          107124803                       # Number of cycles fetch is stalled on an Icache miss (Cycle)
system.cpu.fetch.insts                      469008213                       # Number of instructions fetch has processed (Count)
system.cpu.fetch.branches                    60926351                       # Number of branches that fetch encountered (Count)
system.cpu.fetch.predictedBranches           53491263                       # Number of branches that fetch has predicted taken (Count)
system.cpu.fetch.cycles                     202697197                       # Number of cycles fetch has run and was not squashing or blocked (Cycle)
system.cpu.fetch.squashCycles                 5920248                       # Number of cycles fetch has spent squashing (Cycle)
system.cpu.fetch.miscStallCycles                  717                       # Number of cycles fetch has spent waiting on interrupts, or bad addresses, or out of MSHRs (Cycle)
system.cpu.fetch.pendingTrapStallCycles          4926                       # Number of stall cycles due to pending traps (Cycle)
system.cpu.fetch.icacheWaitRetryStallCycles           36                       # Number of stall cycles due to full MSHR (Cycle)
system.cpu.fetch.cacheLines                 106980964                       # Number of cache lines fetched (Count)
system.cpu.fetch.icacheSquashes               2763954                       # Number of outstanding Icache misses that were squashed (Count)
system.cpu.fetch.nisnDist::samples          312787803                       # Number of instructions fetched each cycle (Total) (Count)
system.cpu.fetch.nisnDist::mean              2.774770                       # Number of instructions fetched each cycle (Total) (Count)
system.cpu.fetch.nisnDist::stdev             3.145087                       # Number of instructions fetched each cycle (Total) (Count)
system.cpu.fetch.nisnDist::underflows               0      0.00%      0.00% # Number of instructions fetched each cycle (Total) (Count)
system.cpu.fetch.nisnDist::0                139828853     44.70%     44.70% # Number of instructions fetched each cycle (Total) (Count)
system.cpu.fetch.nisnDist::1                  3264773      1.04%     45.75% # Number of instructions fetched each cycle (Total) (Count)
system.cpu.fetch.nisnDist::2                 46450204     14.85%     60.60% # Number of instructions fetched each cycle (Total) (Count)
system.cpu.fetch.nisnDist::3                  2543937      0.81%     61.41% # Number of instructions fetched each cycle (Total) (Count)
system.cpu.fetch.nisnDist::4                 48437258     15.49%     76.90% # Number of instructions fetched each cycle (Total) (Count)
system.cpu.fetch.nisnDist::5                   762749      0.24%     77.14% # Number of instructions fetched each cycle (Total) (Count)
system.cpu.fetch.nisnDist::6                   942453      0.30%     77.44% # Number of instructions fetched each cycle (Total) (Count)
system.cpu.fetch.nisnDist::7                  3560987      1.14%     78.58% # Number of instructions fetched each cycle (Total) (Count)
system.cpu.fetch.nisnDist::8                 66996589     21.42%    100.00% # Number of instructions fetched each cycle (Total) (Count)
system.cpu.fetch.nisnDist::overflows                0      0.00%    100.00% # Number of instructions fetched each cycle (Total) (Count)
system.cpu.fetch.nisnDist::min_value                0                       # Number of instructions fetched each cycle (Total) (Count)
system.cpu.fetch.nisnDist::max_value                8                       # Number of instructions fetched each cycle (Total) (Count)
system.cpu.fetch.nisnDist::total            312787803                       # Number of instructions fetched each cycle (Total) (Count)
system.cpu.fetch.branchRate                  0.194643                       # Number of branch fetches per cycle (Ratio)
system.cpu.fetch.rate                        1.498353                       # Number of inst fetches per cycle ((Count/Cycle))
system.cpu.icache.demandHits::cpu.inst      106978568                       # number of demand (read+write) hits (Count)
system.cpu.icache.demandHits::total         106978568                       # number of demand (read+write) hits (Count)
system.cpu.icache.overallHits::cpu.inst     106978568                       # number of overall hits (Count)
system.cpu.icache.overallHits::total        106978568                       # number of overall hits (Count)
system.cpu.icache.demandMisses::cpu.inst         2396                       # number of demand (read+write) misses (Count)
system.cpu.icache.demandMisses::total            2396                       # number of demand (read+write) misses (Count)
system.cpu.icache.overallMisses::cpu.inst         2396                       # number of overall misses (Count)
system.cpu.icache.overallMisses::total           2396                       # number of overall misses (Count)
system.cpu.icache.demandMissLatency::cpu.inst    190946195                       # number of demand (read+write) miss ticks (Tick)
system.cpu.icache.demandMissLatency::total    190946195                       # number of demand (read+write) miss ticks (Tick)
system.cpu.icache.overallMissLatency::cpu.inst    190946195                       # number of overall miss ticks (Tick)
system.cpu.icache.overallMissLatency::total    190946195                       # number of overall miss ticks (Tick)
system.cpu.icache.demandAccesses::cpu.inst    106980964                       # number of demand (read+write) accesses (Count)
system.cpu.icache.demandAccesses::total     106980964                       # number of demand (read+write) accesses (Count)
system.cpu.icache.overallAccesses::cpu.inst    106980964                       # number of overall (read+write) accesses (Count)
system.cpu.icache.overallAccesses::total    106980964                       # number of overall (read+write) accesses (Count)
system.cpu.icache.demandMissRate::cpu.inst     0.000022                       # miss rate for demand accesses (Ratio)
system.cpu.icache.demandMissRate::total      0.000022                       # miss rate for demand accesses (Ratio)
system.cpu.icache.overallMissRate::cpu.inst     0.000022                       # miss rate for overall accesses (Ratio)
system.cpu.icache.overallMissRate::total     0.000022                       # miss rate for overall accesses (Ratio)
system.cpu.icache.demandAvgMissLatency::cpu.inst 79693.737479                       # average overall miss latency in ticks ((Tick/Count))
system.cpu.icache.demandAvgMissLatency::total 79693.737479                       # average overall miss latency in ticks ((Tick/Count))
system.cpu.icache.overallAvgMissLatency::cpu.inst 79693.737479                       # average overall miss latency ((Tick/Count))
system.cpu.icache.overallAvgMissLatency::total 79693.737479                       # average overall miss latency ((Tick/Count))
system.cpu.icache.blockedCycles::no_mshrs          800                       # number of cycles access was blocked (Cycle)
system.cpu.icache.blockedCycles::no_targets            0                       # number of cycles access was blocked (Cycle)
system.cpu.icache.blockedCauses::no_mshrs            7                       # number of times access was blocked (Count)
system.cpu.icache.blockedCauses::no_targets            0                       # number of times access was blocked (Count)
system.cpu.icache.avgBlocked::no_mshrs     114.285714                       # average number of cycles each access was blocked ((Cycle/Count))
system.cpu.icache.avgBlocked::no_targets          nan                       # average number of cycles each access was blocked ((Cycle/Count))
system.cpu.icache.writebacks::writebacks         1265                       # number of writebacks (Count)
system.cpu.icache.writebacks::total              1265                       # number of writebacks (Count)
system.cpu.icache.demandMshrHits::cpu.inst          618                       # number of demand (read+write) MSHR hits (Count)
system.cpu.icache.demandMshrHits::total           618                       # number of demand (read+write) MSHR hits (Count)
system.cpu.icache.overallMshrHits::cpu.inst          618                       # number of overall MSHR hits (Count)
system.cpu.icache.overallMshrHits::total          618                       # number of overall MSHR hits (Count)
system.cpu.icache.demandMshrMisses::cpu.inst         1778                       # number of demand (read+write) MSHR misses (Count)
system.cpu.icache.demandMshrMisses::total         1778                       # number of demand (read+write) MSHR misses (Count)
system.cpu.icache.overallMshrMisses::cpu.inst         1778                       # number of overall MSHR misses (Count)
system.cpu.icache.overallMshrMisses::total         1778                       # number of overall MSHR misses (Count)
system.cpu.icache.demandMshrMissLatency::cpu.inst    145985867                       # number of demand (read+write) MSHR miss ticks (Tick)
system.cpu.icache.demandMshrMissLatency::total    145985867                       # number of demand (read+write) MSHR miss ticks (Tick)
system.cpu.icache.overallMshrMissLatency::cpu.inst    145985867                       # number of overall MSHR miss ticks (Tick)
system.cpu.icache.overallMshrMissLatency::total    145985867                       # number of overall MSHR miss ticks (Tick)
system.cpu.icache.demandMshrMissRate::cpu.inst     0.000017                       # mshr miss ratio for demand accesses (Ratio)
system.cpu.icache.demandMshrMissRate::total     0.000017                       # mshr miss ratio for demand accesses (Ratio)
system.cpu.icache.overallMshrMissRate::cpu.inst     0.000017                       # mshr miss ratio for overall accesses (Ratio)
system.cpu.icache.overallMshrMissRate::total     0.000017                       # mshr miss ratio for overall accesses (Ratio)
system.cpu.icache.demandAvgMshrMissLatency::cpu.inst 82106.786839                       # average overall mshr miss latency ((Tick/Count))
system.cpu.icache.demandAvgMshrMissLatency::total 82106.786839                       # average overall mshr miss latency ((Tick/Count))
system.cpu.icache.overallAvgMshrMissLatency::cpu.inst 82106.786839                       # average overall mshr miss latency ((Tick/Count))
system.cpu.icache.overallAvgMshrMissLatency::total 82106.786839                       # average overall mshr miss latency ((Tick/Count))
system.cpu.icache.replacements                   1265                       # number of replacements (Count)
system.cpu.icache.ReadReq.hits::cpu.inst    106978568                       # number of ReadReq hits (Count)
system.cpu.icache.ReadReq.hits::total       106978568                       # number of ReadReq hits (Count)
system.cpu.icache.ReadReq.misses::cpu.inst         2396                       # number of ReadReq misses (Count)
system.cpu.icache.ReadReq.misses::total          2396                       # number of ReadReq misses (Count)
system.cpu.icache.ReadReq.missLatency::cpu.inst    190946195                       # number of ReadReq miss ticks (Tick)
system.cpu.icache.ReadReq.missLatency::total    190946195                       # number of ReadReq miss ticks (Tick)
system.cpu.icache.ReadReq.accesses::cpu.inst    106980964                       # number of ReadReq accesses(hits+misses) (Count)
system.cpu.icache.ReadReq.accesses::total    106980964                       # number of ReadReq accesses(hits+misses) (Count)
system.cpu.icache.ReadReq.missRate::cpu.inst     0.000022                       # miss rate for ReadReq accesses (Ratio)
system.cpu.icache.ReadReq.missRate::total     0.000022                       # miss rate for ReadReq accesses (Ratio)
system.cpu.icache.ReadReq.avgMissLatency::cpu.inst 79693.737479                       # average ReadReq miss latency ((Tick/Count))
system.cpu.icache.ReadReq.avgMissLatency::total 79693.737479                       # average ReadReq miss latency ((Tick/Count))
system.cpu.icache.ReadReq.mshrHits::cpu.inst          618                       # number of ReadReq MSHR hits (Count)
system.cpu.icache.ReadReq.mshrHits::total          618                       # number of ReadReq MSHR hits (Count)
system.cpu.icache.ReadReq.mshrMisses::cpu.inst         1778                       # number of ReadReq MSHR misses (Count)
system.cpu.icache.ReadReq.mshrMisses::total         1778                       # number of ReadReq MSHR misses (Count)
system.cpu.icache.ReadReq.mshrMissLatency::cpu.inst    145985867                       # number of ReadReq MSHR miss ticks (Tick)
system.cpu.icache.ReadReq.mshrMissLatency::total    145985867                       # number of ReadReq MSHR miss ticks (Tick)
system.cpu.icache.ReadReq.mshrMissRate::cpu.inst     0.000017                       # mshr miss rate for ReadReq accesses (Ratio)
system.cpu.icache.ReadReq.mshrMissRate::total     0.000017                       # mshr miss rate for ReadReq accesses (Ratio)
system.cpu.icache.ReadReq.avgMshrMissLatency::cpu.inst 82106.786839                       # average ReadReq mshr miss latency ((Tick/Count))
system.cpu.icache.ReadReq.avgMshrMissLatency::total 82106.786839                       # average ReadReq mshr miss latency ((Tick/Count))
system.cpu.icache.power_state.pwrStateResidencyTicks::UNDEFINED 104234274054                       # Cumulative time (in ticks) in various power states (Tick)
system.cpu.icache.tags.tagsInUse           511.886345                       # Average ticks per tags in use ((Tick/Count))
system.cpu.icache.tags.totalRefs            106980345                       # Total number of references to valid blocks. (Count)
system.cpu.icache.tags.sampledRefs               1777                       # Sample count of references to valid blocks. (Count)
system.cpu.icache.tags.avgRefs           60202.782780                       # Average number of references to valid blocks. ((Count/Count))
system.cpu.icache.tags.warmupTick               92241                       # The tick when the warmup percentage was hit. (Tick)
system.cpu.icache.tags.occupancies::cpu.inst   511.886345                       # Average occupied blocks per tick, per requestor ((Count/Tick))
system.cpu.icache.tags.avgOccs::cpu.inst     0.999778                       # Average percentage of cache occupancy ((Ratio/Tick))
system.cpu.icache.tags.avgOccs::total        0.999778                       # Average percentage of cache occupancy ((Ratio/Tick))
system.cpu.icache.tags.occupanciesTaskId::1024          512                       # Occupied blocks per task id (Count)
system.cpu.icache.tags.ageTaskId_1024::0          135                       # Occupied blocks per task id, per block age (Count)
system.cpu.icache.tags.ageTaskId_1024::1          147                       # Occupied blocks per task id, per block age (Count)
system.cpu.icache.tags.ageTaskId_1024::4          230                       # Occupied blocks per task id, per block age (Count)
system.cpu.icache.tags.ratioOccsTaskId::1024            1                       # Ratio of occupied blocks and all blocks, per task id (Ratio)
system.cpu.icache.tags.tagAccesses          855849489                       # Number of tag accesses (Count)
system.cpu.icache.tags.dataAccesses         855849489                       # Number of data accesses (Count)
system.cpu.icache.tags.power_state.pwrStateResidencyTicks::UNDEFINED 104234274054                       # Cumulative time (in ticks) in various power states (Tick)
system.cpu.iew.idleCycles                           0                       # Number of cycles IEW is idle (Cycle)
system.cpu.iew.squashCycles                   2959253                       # Number of cycles IEW is squashing (Cycle)
system.cpu.iew.blockCycles                     660768                       # Number of cycles IEW is blocking (Cycle)
system.cpu.iew.unblockCycles                    17906                       # Number of cycles IEW is unblocking (Cycle)
system.cpu.iew.dispatchedInsts              823337789                       # Number of instructions dispatched to IQ (Count)
system.cpu.iew.dispSquashedInsts              5162425                       # Number of squashed instructions skipped by dispatch (Count)
system.cpu.iew.dispLoadInsts                104431989                       # Number of dispatched load instructions (Count)
system.cpu.iew.dispStoreInsts                48038360                       # Number of dispatched store instructions (Count)
system.cpu.iew.dispNonSpecInsts                   304                       # Number of dispatched non-speculative instructions (Count)
system.cpu.iew.iqFullEvents                      1459                       # Number of times the IQ has become full, causing a stall (Count)
system.cpu.iew.lsqFullEvents                    15593                       # Number of times the LSQ has become full, causing a stall (Count)
system.cpu.iew.memOrderViolationEvents           2582                       # Number of memory order violations (Count)
system.cpu.iew.predictedTakenIncorrect        2944765                       # Number of branches that were predicted taken incorrectly (Count)
system.cpu.iew.predictedNotTakenIncorrect        17480                       # Number of branches that were predicted not taken incorrectly (Count)
system.cpu.iew.branchMispredicts              2962245                       # Number of branch mispredicts detected at execute (Count)
system.cpu.iew.instsToCommit                813183629                       # Cumulative count of insts sent to commit (Count)
system.cpu.iew.writebackCount               813010858                       # Cumulative count of insts written-back (Count)
system.cpu.iew.producerInst                 593125878                       # Number of instructions producing a value (Count)
system.cpu.iew.consumerInst                1014663165                       # Number of instructions consuming a value (Count)
system.cpu.iew.wbRate                        2.597347                       # Insts written-back per cycle ((Count/Cycle))
system.cpu.iew.wbFanout                      0.584554                       # Average fanout of values written-back ((Count/Count))
system.cpu.interrupts.clk_domain.clock           5328                       # Clock period in ticks (Tick)
system.cpu.itb_walker_cache.blockedCycles::no_mshrs            0                       # number of cycles access was blocked (Cycle)
system.cpu.itb_walker_cache.blockedCycles::no_targets            0                       # number of cycles access was blocked (Cycle)
system.cpu.itb_walker_cache.blockedCauses::no_mshrs            0                       # number of times access was blocked (Count)
system.cpu.itb_walker_cache.blockedCauses::no_targets            0                       # number of times access was blocked (Count)
system.cpu.itb_walker_cache.avgBlocked::no_mshrs          nan                       # average number of cycles each access was blocked ((Cycle/Count))
system.cpu.itb_walker_cache.avgBlocked::no_targets          nan                       # average number of cycles each access was blocked ((Cycle/Count))
system.cpu.itb_walker_cache.replacements            0                       # number of replacements (Count)
system.cpu.itb_walker_cache.power_state.pwrStateResidencyTicks::UNDEFINED 104234274054                       # Cumulative time (in ticks) in various power states (Tick)
system.cpu.itb_walker_cache.tags.tagsInUse            0                       # Average ticks per tags in use ((Tick/Count))
system.cpu.itb_walker_cache.tags.totalRefs            0                       # Total number of references to valid blocks. (Count)
system.cpu.itb_walker_cache.tags.sampledRefs            0                       # Sample count of references to valid blocks. (Count)
[...]
system.mem_ctrls.dram.perBankRdBursts::13         2372                       # Per bank write bursts (Count)
system.mem_ctrls.dram.perBankRdBursts::14         2301                       # Per bank write bursts (Count)
system.mem_ctrls.dram.perBankRdBursts::15         2355                       # Per bank write bursts (Count)
system.mem_ctrls.dram.perBankWrBursts::0            0                       # Per bank write bursts (Count)
system.mem_ctrls.dram.perBankWrBursts::1            0                       # Per bank write bursts (Count)
system.mem_ctrls.dram.perBankWrBursts::2            0                       # Per bank write bursts (Count)
system.mem_ctrls.dram.perBankWrBursts::3            0                       # Per bank write bursts (Count)
system.mem_ctrls.dram.perBankWrBursts::4            0                       # Per bank write bursts (Count)
system.mem_ctrls.dram.perBankWrBursts::5            0                       # Per bank write bursts (Count)
system.mem_ctrls.dram.perBankWrBursts::6            0                       # Per bank write bursts (Count)
system.mem_ctrls.dram.perBankWrBursts::7            0                       # Per bank write bursts (Count)
system.mem_ctrls.dram.perBankWrBursts::8            0                       # Per bank write bursts (Count)
system.mem_ctrls.dram.perBankWrBursts::9            0                       # Per bank write bursts (Count)
system.mem_ctrls.dram.perBankWrBursts::10            0                       # Per bank write bursts (Count)
system.mem_ctrls.dram.perBankWrBursts::11            0                       # Per bank write bursts (Count)
system.mem_ctrls.dram.perBankWrBursts::12            0                       # Per bank write bursts (Count)
system.mem_ctrls.dram.perBankWrBursts::13            0                       # Per bank write bursts (Count)
system.mem_ctrls.dram.perBankWrBursts::14            0                       # Per bank write bursts (Count)
system.mem_ctrls.dram.perBankWrBursts::15            0                       # Per bank write bursts (Count)
system.mem_ctrls.dram.totQLat               323050873                       # Total ticks spent queuing (Tick)
system.mem_ctrls.dram.totBusLat             188850000                       # Total ticks spent in databus transfers (Tick)
system.mem_ctrls.dram.totMemAccLat         1031238373                       # Total ticks spent from burst creation until serviced by the DRAM (Tick)
system.mem_ctrls.dram.avgQLat                 8553.11                       # Average queueing delay per DRAM burst ((Tick/Count))
system.mem_ctrls.dram.avgBusLat               5000.00                       # Average bus latency per DRAM burst ((Tick/Count))
system.mem_ctrls.dram.avgMemAccLat           27303.11                       # Average memory access latency per DRAM burst ((Tick/Count))
system.mem_ctrls.dram.readRowHits               27923                       # Number of row buffer hits during reads (Count)
system.mem_ctrls.dram.writeRowHits                  0                       # Number of row buffer hits during writes (Count)
system.mem_ctrls.dram.readRowHitRate            73.93                       # Row buffer hit rate for reads (Ratio)
system.mem_ctrls.dram.writeRowHitRate             nan                       # Row buffer hit rate for writes (Ratio)
system.mem_ctrls.dram.bytesPerActivate::samples         9835                       # Bytes accessed per row activation (Byte)
system.mem_ctrls.dram.bytesPerActivate::mean   245.445043                       # Bytes accessed per row activation (Byte)
system.mem_ctrls.dram.bytesPerActivate::gmean   222.753884                       # Bytes accessed per row activation (Byte)
system.mem_ctrls.dram.bytesPerActivate::stdev   122.823110                       # Bytes accessed per row activation (Byte)
system.mem_ctrls.dram.bytesPerActivate::0-127          790      8.03%      8.03% # Bytes accessed per row activation (Byte)
system.mem_ctrls.dram.bytesPerActivate::128-255         1252     12.73%     20.76% # Bytes accessed per row activation (Byte)
system.mem_ctrls.dram.bytesPerActivate::256-383         7489     76.15%     96.91% # Bytes accessed per row activation (Byte)
system.mem_ctrls.dram.bytesPerActivate::384-511           53      0.54%     97.45% # Bytes accessed per row activation (Byte)
system.mem_ctrls.dram.bytesPerActivate::512-639           34      0.35%     97.79% # Bytes accessed per row activation (Byte)
system.mem_ctrls.dram.bytesPerActivate::640-767           34      0.35%     98.14% # Bytes accessed per row activation (Byte)
system.mem_ctrls.dram.bytesPerActivate::768-895           26      0.26%     98.40% # Bytes accessed per row activation (Byte)
system.mem_ctrls.dram.bytesPerActivate::896-1023           21      0.21%     98.62% # Bytes accessed per row activation (Byte)
system.mem_ctrls.dram.bytesPerActivate::1024-1151          136      1.38%    100.00% # Bytes accessed per row activation (Byte)
system.mem_ctrls.dram.bytesPerActivate::total         9835                       # Bytes accessed per row activation (Byte)
system.mem_ctrls.dram.bytesRead               2417280                       # Total bytes read (Byte)
system.mem_ctrls.dram.bytesWritten                  0                       # Total bytes written (Byte)
system.mem_ctrls.dram.avgRdBW               23.190836                       # Average DRAM read bandwidth in MiBytes/s ((Byte/Second))
system.mem_ctrls.dram.avgWrBW                       0                       # Average DRAM write bandwidth in MiBytes/s ((Byte/Second))
system.mem_ctrls.dram.peakBW                 12800.00                       # Theoretical peak bandwidth in MiByte/s ((Byte/Second))
system.mem_ctrls.dram.busUtil                    0.18                       # Data bus utilization in percentage (Ratio)
system.mem_ctrls.dram.busUtilRead                0.18                       # Data bus utilization in percentage for reads (Ratio)
system.mem_ctrls.dram.busUtilWrite               0.00                       # Data bus utilization in percentage for writes (Ratio)
system.mem_ctrls.dram.pageHitRate               73.93                       # Row buffer hit rate, read and write combined (Ratio)
system.mem_ctrls.dram.power_state.pwrStateResidencyTicks::UNDEFINED 104234274054                       # Cumulative time (in ticks) in various power states (Tick)
system.mem_ctrls.dram.rank0.actEnergy        35335860                       # Energy for activate commands per rank (pJ) (Joule)
system.mem_ctrls.dram.rank0.preEnergy        18751095                       # Energy for precharge commands per rank (pJ) (Joule)
system.mem_ctrls.dram.rank0.readEnergy      134603280                       # Energy for read commands per rank (pJ) (Joule)
system.mem_ctrls.dram.rank0.writeEnergy             0                       # Energy for write commands per rank (pJ) (Joule)
system.mem_ctrls.dram.rank0.refreshEnergy 8227571040.000001                       # Energy for refresh commands per rank (pJ) (Joule)
system.mem_ctrls.dram.rank0.actBackEnergy   4300137000                       # Energy for active background per rank (pJ) (Joule)
system.mem_ctrls.dram.rank0.preBackEnergy  36404793600                       # Energy for precharge background per rank (pJ) (Joule)
system.mem_ctrls.dram.rank0.actPowerDownEnergy            0                       # Energy for active power-down per rank (pJ) (Joule)
system.mem_ctrls.dram.rank0.prePowerDownEnergy            0                       # Energy for precharge power-down per rank (pJ) (Joule)
system.mem_ctrls.dram.rank0.selfRefreshEnergy            0                       # Energy for self refresh per rank (pJ) (Joule)
system.mem_ctrls.dram.rank0.totalEnergy   49121191875                       # Total energy per rank (pJ) (Joule)
system.mem_ctrls.dram.rank0.averagePower   471.257581                       # Core power per rank (mW) (Watt)
system.mem_ctrls.dram.rank0.totalIdleTime            0                       # Total Idle time Per DRAM Rank (Tick)
system.mem_ctrls.dram.rank0.pwrStateTime::IDLE  94604925187                       # Time in different power states (Tick)
system.mem_ctrls.dram.rank0.pwrStateTime::REF   3480360000                       # Time in different power states (Tick)
system.mem_ctrls.dram.rank0.pwrStateTime::SREF            0                       # Time in different power states (Tick)
system.mem_ctrls.dram.rank0.pwrStateTime::PRE_PDN            0                       # Time in different power states (Tick)
system.mem_ctrls.dram.rank0.pwrStateTime::ACT   6148988867                       # Time in different power states (Tick)
system.mem_ctrls.dram.rank0.pwrStateTime::ACT_PDN            0                       # Time in different power states (Tick)
system.mem_ctrls.dram.rank1.actEnergy        34971720                       # Energy for activate commands per rank (pJ) (Joule)
system.mem_ctrls.dram.rank1.preEnergy        18572730                       # Energy for precharge commands per rank (pJ) (Joule)
system.mem_ctrls.dram.rank1.readEnergy      135074520                       # Energy for read commands per rank (pJ) (Joule)
system.mem_ctrls.dram.rank1.writeEnergy             0                       # Energy for write commands per rank (pJ) (Joule)
system.mem_ctrls.dram.rank1.refreshEnergy 8227571040.000001                       # Energy for refresh commands per rank (pJ) (Joule)
system.mem_ctrls.dram.rank1.actBackEnergy   4296653160                       # Energy for active background per rank (pJ) (Joule)
system.mem_ctrls.dram.rank1.preBackEnergy  36407727360                       # Energy for precharge background per rank (pJ) (Joule)
system.mem_ctrls.dram.rank1.actPowerDownEnergy            0                       # Energy for active power-down per rank (pJ) (Joule)
system.mem_ctrls.dram.rank1.prePowerDownEnergy            0                       # Energy for precharge power-down per rank (pJ) (Joule)
system.mem_ctrls.dram.rank1.selfRefreshEnergy            0                       # Energy for self refresh per rank (pJ) (Joule)
system.mem_ctrls.dram.rank1.totalEnergy   49120570530                       # Total energy per rank (pJ) (Joule)
system.mem_ctrls.dram.rank1.averagePower   471.251620                       # Core power per rank (mW) (Watt)
system.mem_ctrls.dram.rank1.totalIdleTime            0                       # Total Idle time Per DRAM Rank (Tick)
system.mem_ctrls.dram.rank1.pwrStateTime::IDLE  94612364856                       # Time in different power states (Tick)
system.mem_ctrls.dram.rank1.pwrStateTime::REF   3480360000                       # Time in different power states (Tick)
system.mem_ctrls.dram.rank1.pwrStateTime::SREF            0                       # Time in different power states (Tick)
system.mem_ctrls.dram.rank1.pwrStateTime::PRE_PDN            0                       # Time in different power states (Tick)
system.mem_ctrls.dram.rank1.pwrStateTime::ACT   6141549198                       # Time in different power states (Tick)
system.mem_ctrls.dram.rank1.pwrStateTime::ACT_PDN            0                       # Time in different power states (Tick)
system.mem_ctrls.power_state.pwrStateResidencyTicks::UNDEFINED 104234274054                       # Cumulative time (in ticks) in various power states (Tick)
system.membus.transDist::ReadResp                4141                       # Transaction distribution (Count)
system.membus.transDist::ReadExReq              33629                       # Transaction distribution (Count)
system.membus.transDist::ReadExResp             33629                       # Transaction distribution (Count)
system.membus.transDist::ReadSharedReq           4141                       # Transaction distribution (Count)
system.membus.pktCount_system.l3.mem_side_port::system.mem_ctrls.port        75540                       # Packet count per connected requestor and responder (Count)
system.membus.pktCount_system.l3.mem_side_port::total        75540                       # Packet count per connected requestor and responder (Count)
system.membus.pktCount::total                   75540                       # Packet count per connected requestor and responder (Count)
system.membus.pktSize_system.l3.mem_side_port::system.mem_ctrls.port      2417280                       # Cumulative packet size per connected requestor and responder (Byte)
system.membus.pktSize_system.l3.mem_side_port::total      2417280                       # Cumulative packet size per connected requestor and responder (Byte)
system.membus.pktSize::total                  2417280                       # Cumulative packet size per connected requestor and responder (Byte)
system.membus.snoops                                0                       # Total snoops (Count)
system.membus.snoopTraffic                          0                       # Total snoop traffic (Byte)
system.membus.snoopFanout::samples              37770                       # Request fanout histogram (Count)
system.membus.snoopFanout::mean                     0                       # Request fanout histogram (Count)
system.membus.snoopFanout::stdev                    0                       # Request fanout histogram (Count)
system.membus.snoopFanout::underflows               0      0.00%      0.00% # Request fanout histogram (Count)
system.membus.snoopFanout::0                    37770    100.00%    100.00% # Request fanout histogram (Count)
system.membus.snoopFanout::1                        0      0.00%    100.00% # Request fanout histogram (Count)
system.membus.snoopFanout::overflows                0      0.00%    100.00% # Request fanout histogram (Count)
system.membus.snoopFanout::min_value                0                       # Request fanout histogram (Count)
system.membus.snoopFanout::max_value                0                       # Request fanout histogram (Count)
system.membus.snoopFanout::total                37770                       # Request fanout histogram (Count)
system.membus.power_state.pwrStateResidencyTicks::UNDEFINED 104234274054                       # Cumulative time (in ticks) in various power states (Tick)
system.membus.reqLayer2.occupancy            56652445                       # Layer occupancy (ticks) (Tick)
system.membus.reqLayer2.utilization               0.0                       # Layer utilization (Ratio)
system.membus.respLayer1.occupancy          200791859                       # Layer occupancy (ticks) (Tick)
system.membus.respLayer1.utilization              0.0                       # Layer utilization (Ratio)
system.membus.snoop_filter.totRequests          37770                       # Total number of requests made to the snoop filter. (Count)
system.membus.snoop_filter.hitSingleRequests            0                       # Number of requests hitting in the snoop filter with a single holder of the requested data. (Count)
system.membus.snoop_filter.hitMultiRequests            0                       # Number of requests hitting in the snoop filter with multiple (>1) holders of the requested data. (Count)
system.membus.snoop_filter.totSnoops                0                       # Total number of snoops made to the snoop filter. (Count)
system.membus.snoop_filter.hitSingleSnoops            0                       # Number of snoops hitting in the snoop filter with a single holder of the requested data. (Count)
system.membus.snoop_filter.hitMultiSnoops            0                       # Number of snoops hitting in the snoop filter with multiple (>1) holders of the requested data. (Count)
system.tol3bus.transDist::ReadResp              15992                       # Transaction distribution (Count)
system.tol3bus.transDist::WritebackDirty        13417                       # Transaction distribution (Count)
system.tol3bus.transDist::CleanEvict             3234                       # Transaction distribution (Count)
system.tol3bus.transDist::ReadExReq             33660                       # Transaction distribution (Count)
system.tol3bus.transDist::ReadExResp            33660                       # Transaction distribution (Count)
system.tol3bus.transDist::ReadSharedReq         15992                       # Transaction distribution (Count)
system.tol3bus.pktCount_system.cpu.l2cache.mem_side_port::system.l3.cpu_side_port       115955                       # Packet count per connected requestor and responder (Count)
system.tol3bus.pktSize_system.cpu.l2cache.mem_side_port::system.l3.cpu_side_port      4036416                       # Cumulative packet size per connected requestor and responder (Byte)
system.tol3bus.snoops                               0                       # Total snoops (Count)
system.tol3bus.snoopTraffic                         0                       # Total snoop traffic (Byte)
system.tol3bus.snoopFanout::samples             49652                       # Request fanout histogram (Count)
system.tol3bus.snoopFanout::mean                    0                       # Request fanout histogram (Count)
system.tol3bus.snoopFanout::stdev                   0                       # Request fanout histogram (Count)
system.tol3bus.snoopFanout::underflows              0      0.00%      0.00% # Request fanout histogram (Count)
system.tol3bus.snoopFanout::0                   49652    100.00%    100.00% # Request fanout histogram (Count)
system.tol3bus.snoopFanout::1                       0      0.00%    100.00% # Request fanout histogram (Count)
system.tol3bus.snoopFanout::overflows               0      0.00%    100.00% # Request fanout histogram (Count)
system.tol3bus.snoopFanout::min_value               0                       # Request fanout histogram (Count)
system.tol3bus.snoopFanout::max_value               0                       # Request fanout histogram (Count)
system.tol3bus.snoopFanout::total               49652                       # Request fanout histogram (Count)
system.tol3bus.power_state.pwrStateResidencyTicks::UNDEFINED 104234274054                       # Cumulative time (in ticks) in various power states (Tick)
system.tol3bus.reqLayer0.occupancy           31014621                       # Layer occupancy (ticks) (Tick)
system.tol3bus.reqLayer0.utilization              0.0                       # Layer utilization (Ratio)
system.tol3bus.respLayer0.occupancy          49602348                       # Layer occupancy (ticks) (Tick)
system.tol3bus.respLayer0.utilization             0.0                       # Layer utilization (Ratio)
system.tol3bus.snoop_filter.totRequests         66303                       # Total number of requests made to the snoop filter. (Count)
system.tol3bus.snoop_filter.hitSingleRequests        16651                       # Number of requests hitting in the snoop filter with a single holder of the requested data. (Count)
system.tol3bus.snoop_filter.hitMultiRequests            0                       # Number of requests hitting in the snoop filter with multiple (>1) holders of the requested data. (Count)
system.tol3bus.snoop_filter.totSnoops               0                       # Total number of snoops made to the snoop filter. (Count)
system.tol3bus.snoop_filter.hitSingleSnoops            0                       # Number of snoops hitting in the snoop filter with a single holder of the requested data. (Count)
system.tol3bus.snoop_filter.hitMultiSnoops            0                       # Number of snoops hitting in the snoop filter with multiple (>1) holders of the requested data. (Count)
system.voltage_domain.voltage                       1                       # Voltage in Volts (Volt)
system.workload.inst.arm                            0                       # number of arm instructions executed (Count)
system.workload.inst.quiesce                        0                       # number of quiesce instructions executed (Count)

---------- End Simulation Statistics   ----------
