
---------- Begin Simulation Statistics ----------
simSeconds                                   0.008078                       # Number of seconds simulated (Second)
simTicks                                   8078232015                       # Number of ticks simulated (Tick)
finalTick                                  8078232015                       # Number of ticks from beginning of simulation (restored from checkpoints and never reset) (Tick)
simFreq                                  1000000000000                       # The number of ticks per simulated second ((Tick/Second))
hostSeconds                                    185.41                       # Real time elapsed on the host (Second)
hostTickRate                                 43569225                       # The number of ticks simulated per host second (ticks/s) ((Tick/Second))
hostMemory                                     815892                       # Number of bytes of host memory used (Byte)
simInsts                                     50732710                       # Number of instructions simulated (Count)
simOps                                       82774671                       # Number of ops (including micro ops) simulated (Count)
hostInstRate                                   273622                       # Simulator instruction rate (inst/s) ((Count/Second))
hostOpRate                                     446438                       # Simulator op (including micro ops) rate (op/s) ((Count/Second))
system.clk_domain.clock                          1000                       # Clock period in ticks (Tick)
system.cpu0.numCycles                        24071495                       # Number of cpu cycles simulated (Cycle)
system.cpu0.numWorkItemsStarted                     0                       # Number of work items this cpu started (Count)
system.cpu0.numWorkItemsCompleted                   0                       # Number of work items this cpu completed (Count)
system.cpu0.instsAdded                       60778521                       # Number of instructions added to the IQ (excludes non-spec) (Count)
system.cpu0.nonSpecInstsAdded                    1594                       # Number of non-speculative instructions added to the IQ (Count)
system.cpu0.instsIssued                      60511425                       # Number of instructions issued (Count)
system.cpu0.squashedInstsIssued                  8016                       # Number of squashed instructions issued (Count)
system.cpu0.squashedInstsExamined              953324                       # Number of squashed instructions iterated over during squash; mainly for profiling (Count)
system.cpu0.squashedOperandsExamined          1630150                       # Number of squashed operands that are examined and possibly removed from graph (Count)
system.cpu0.squashedNonSpecRemoved                760                       # Number of squashed non-spec instructions that were removed (Count)
system.cpu0.numIssuedDist::samples           23829840                       # Number of insts issued each cycle (Count)
system.cpu0.numIssuedDist::mean              2.539313                       # Number of insts issued each cycle (Count)
system.cpu0.numIssuedDist::stdev             2.612087                       # Number of insts issued each cycle (Count)
system.cpu0.numIssuedDist::underflows               0      0.00%      0.00% # Number of insts issued each cycle (Count)
system.cpu0.numIssuedDist::0                  9624229     40.39%     40.39% # Number of insts issued each cycle (Count)
system.cpu0.numIssuedDist::1                  1574354      6.61%     46.99% # Number of insts issued each cycle (Count)
system.cpu0.numIssuedDist::2                  1376627      5.78%     52.77% # Number of insts issued each cycle (Count)
system.cpu0.numIssuedDist::3                  2642653     11.09%     63.86% # Number of insts issued each cycle (Count)
system.cpu0.numIssuedDist::4                  2361346      9.91%     73.77% # Number of insts issued each cycle (Count)
system.cpu0.numIssuedDist::5                  1768886      7.42%     81.19% # Number of insts issued each cycle (Count)
system.cpu0.numIssuedDist::6                  2433549     10.21%     91.40% # Number of insts issued each cycle (Count)
system.cpu0.numIssuedDist::7                  1020818      4.28%     95.69% # Number of insts issued each cycle (Count)
system.cpu0.numIssuedDist::8                  1027378      4.31%    100.00% # Number of insts issued each cycle (Count)
system.cpu0.numIssuedDist::overflows                0      0.00%    100.00% # Number of insts issued each cycle (Count)
system.cpu0.numIssuedDist::min_value                0                       # Number of insts issued each cycle (Count)
system.cpu0.numIssuedDist::max_value                8                       # Number of insts issued each cycle (Count)
system.cpu0.numIssuedDist::total             23829840                       # Number of insts issued each cycle (Count)
system.cpu0.statFuBusy::No_OpClass                  0      0.00%      0.00% # attempts to use FU when none available (Count)
system.cpu0.statFuBusy::IntAlu                 386557     83.58%     83.58% # attempts to use FU when none available (Count)
system.cpu0.statFuBusy::IntMult                     0      0.00%     83.58% # attempts to use FU when none available (Count)
system.cpu0.statFuBusy::IntDiv                      0      0.00%     83.58% # attempts to use FU when none available (Count)
system.cpu0.statFuBusy::FloatAdd                    0      0.00%     83.58% # attempts to use FU when none available (Count)
system.cpu0.statFuBusy::FloatCmp                    0      0.00%     83.58% # attempts to use FU when none available (Count)
system.cpu0.statFuBusy::FloatCvt                    0      0.00%     83.58% # attempts to use FU when none available (Count)
system.cpu0.statFuBusy::FloatMult                   0      0.00%     83.58% # attempts to use FU when none available (Count)
system.cpu0.statFuBusy::FloatMultAcc                0      0.00%     83.58% # attempts to use FU when none available (Count)
system.cpu0.statFuBusy::FloatDiv                    0      0.00%     83.58% # attempts to use FU when none available (Count)
system.cpu0.statFuBusy::FloatMisc                   0      0.00%     83.58% # attempts to use FU when none available (Count)
system.cpu0.statFuBusy::FloatSqrt                   0      0.00%     83.58% # attempts to use FU when none available (Count)
system.cpu0.statFuBusy::SimdAdd                     1      0.00%     83.58% # attempts to use FU when none available (Count)
system.cpu0.statFuBusy::SimdAddAcc                  0      0.00%     83.58% # attempts to use FU when none available (Count)
system.cpu0.statFuBusy::SimdAlu                 18888      4.08%     87.66% # attempts to use FU when none available (Count)
system.cpu0.statFuBusy::SimdCmp                     0      0.00%     87.66% # attempts to use FU when none available (Count)
system.cpu0.statFuBusy::SimdCvt                   120      0.03%     87.69% # attempts to use FU when none available (Count)
system.cpu0.statFuBusy::SimdMisc                   23      0.00%     87.70% # attempts to use FU when none available (Count)
system.cpu0.statFuBusy::SimdMult                    0      0.00%     87.70% # attempts to use FU when none available (Count)
system.cpu0.statFuBusy::SimdMultAcc                 0      0.00%     87.70% # attempts to use FU when none available (Count)
system.cpu0.statFuBusy::SimdShift                  26      0.01%     87.70% # attempts to use FU when none available (Count)
system.cpu0.statFuBusy::SimdShiftAcc                0      0.00%     87.70% # attempts to use FU when none available (Count)
system.cpu0.statFuBusy::SimdDiv                     0      0.00%     87.70% # attempts to use FU when none available (Count)
system.cpu0.statFuBusy::SimdSqrt                    0      0.00%     87.70% # attempts to use FU when none available (Count)
system.cpu0.statFuBusy::SimdFloatAdd             1671      0.36%     88.06% # attempts to use FU when none available (Count)
system.cpu0.statFuBusy::SimdFloatAlu                0      0.00%     88.06% # attempts to use FU when none available (Count)
system.cpu0.statFuBusy::SimdFloatCmp                0      0.00%     88.06% # attempts to use FU when none available (Count)
system.cpu0.statFuBusy::SimdFloatCvt             8405      1.82%     89.88% # attempts to use FU when none available (Count)
system.cpu0.statFuBusy::SimdFloatDiv                0      0.00%     89.88% # attempts to use FU when none available (Count)
system.cpu0.statFuBusy::SimdFloatMisc               0      0.00%     89.88% # attempts to use FU when none available (Count)
system.cpu0.statFuBusy::SimdFloatMult           24525      5.30%     95.18% # attempts to use FU when none available (Count)
system.cpu0.statFuBusy::SimdFloatMultAcc            0      0.00%     95.18% # attempts to use FU when none available (Count)
system.cpu0.statFuBusy::SimdFloatSqrt               0      0.00%     95.18% # attempts to use FU when none available (Count)
system.cpu0.statFuBusy::SimdReduceAdd               0      0.00%     95.18% # attempts to use FU when none available (Count)
system.cpu0.statFuBusy::SimdReduceAlu               0      0.00%     95.18% # attempts to use FU when none available (Count)
system.cpu0.statFuBusy::SimdReduceCmp               0      0.00%     95.18% # attempts to use FU when none available (Count)
system.cpu0.statFuBusy::SimdFloatReduceAdd            0      0.00%     95.18% # attempts to use FU when none available (Count)
system.cpu0.statFuBusy::SimdFloatReduceCmp            0      0.00%     95.18% # attempts to use FU when none available (Count)
system.cpu0.statFuBusy::SimdAes                     0      0.00%     95.18% # attempts to use FU when none available (Count)
system.cpu0.statFuBusy::SimdAesMix                  0      0.00%     95.18% # attempts to use FU when none available (Count)
system.cpu0.statFuBusy::SimdSha1Hash                0      0.00%     95.18% # attempts to use FU when none available (Count)
system.cpu0.statFuBusy::SimdSha1Hash2               0      0.00%     95.18% # attempts to use FU when none available (Count)
system.cpu0.statFuBusy::SimdSha256Hash              0      0.00%     95.18% # attempts to use FU when none available (Count)
system.cpu0.statFuBusy::SimdSha256Hash2             0      0.00%     95.18% # attempts to use FU when none available (Count)
system.cpu0.statFuBusy::SimdShaSigma2               0      0.00%     95.18% # attempts to use FU when none available (Count)
system.cpu0.statFuBusy::SimdShaSigma3               0      0.00%     95.18% # attempts to use FU when none available (Count)
system.cpu0.statFuBusy::SimdPredAlu                 0      0.00%     95.18% # attempts to use FU when none available (Count)
system.cpu0.statFuBusy::MemRead                  1774      0.38%     95.57% # attempts to use FU when none available (Count)
system.cpu0.statFuBusy::MemWrite                  920      0.20%     95.77% # attempts to use FU when none available (Count)
system.cpu0.statFuBusy::FloatMemRead             7584      1.64%     97.40% # attempts to use FU when none available (Count)
system.cpu0.statFuBusy::FloatMemWrite           12002      2.60%    100.00% # attempts to use FU when none available (Count)
system.cpu0.statFuBusy::IprAccess                   0      0.00%    100.00% # attempts to use FU when none available (Count)
system.cpu0.statFuBusy::InstPrefetch                0      0.00%    100.00% # attempts to use FU when none available (Count)
system.cpu0.statIssuedInstType_0::No_OpClass       811090      1.34%      1.34% # Number of instructions issued per FU type, per thread (Count)
system.cpu0.statIssuedInstType_0::IntAlu     35978161     59.46%     60.80% # Number of instructions issued per FU type, per thread (Count)
system.cpu0.statIssuedInstType_0::IntMult       132147      0.22%     61.02% # Number of instructions issued per FU type, per thread (Count)
system.cpu0.statIssuedInstType_0::IntDiv        17093      0.03%     61.04% # Number of instructions issued per FU type, per thread (Count)
system.cpu0.statIssuedInstType_0::FloatAdd      3563933      5.89%     66.93% # Number of instructions issued per FU type, per thread (Count)
system.cpu0.statIssuedInstType_0::FloatCmp            0      0.00%     66.93% # Number of instructions issued per FU type, per thread (Count)
system.cpu0.statIssuedInstType_0::FloatCvt          192      0.00%     66.93% # Number of instructions issued per FU type, per thread (Count)
system.cpu0.statIssuedInstType_0::FloatMult            0      0.00%     66.93% # Number of instructions issued per FU type, per thread (Count)
system.cpu0.statIssuedInstType_0::FloatMultAcc            0      0.00%     66.93% # Number of instructions issued per FU type, per thread (Count)
system.cpu0.statIssuedInstType_0::FloatDiv            0      0.00%     66.93% # Number of instructions issued per FU type, per thread (Count)
system.cpu0.statIssuedInstType_0::FloatMisc            0      0.00%     66.93% # Number of instructions issued per FU type, per thread (Count)
system.cpu0.statIssuedInstType_0::FloatSqrt            0      0.00%     66.93% # Number of instructions issued per FU type, per thread (Count)
system.cpu0.statIssuedInstType_0::SimdAdd         1428      0.00%     66.94% # Number of instructions issued per FU type, per thread (Count)
system.cpu0.statIssuedInstType_0::SimdAddAcc            0      0.00%     66.94% # Number of instructions issued per FU type, per thread (Count)
system.cpu0.statIssuedInstType_0::SimdAlu      1404359      2.32%     69.26% # Number of instructions issued per FU type, per thread (Count)
system.cpu0.statIssuedInstType_0::SimdCmp            6      0.00%     69.26% # Number of instructions issued per FU type, per thread (Count)
system.cpu0.statIssuedInstType_0::SimdCvt         3988      0.01%     69.26% # Number of instructions issued per FU type, per thread (Count)
system.cpu0.statIssuedInstType_0::SimdMisc       413810      0.68%     69.95% # Number of instructions issued per FU type, per thread (Count)
system.cpu0.statIssuedInstType_0::SimdMult            0      0.00%     69.95% # Number of instructions issued per FU type, per thread (Count)
system.cpu0.statIssuedInstType_0::SimdMultAcc            0      0.00%     69.95% # Number of instructions issued per FU type, per thread (Count)
system.cpu0.statIssuedInstType_0::SimdShift         1407      0.00%     69.95% # Number of instructions issued per FU type, per thread (Count)
system.cpu0.statIssuedInstType_0::SimdShiftAcc            0      0.00%     69.95% # Number of instructions issued per FU type, per thread (Count)
system.cpu0.statIssuedInstType_0::SimdDiv            0      0.00%     69.95% # Number of instructions issued per FU type, per thread (Count)
system.cpu0.statIssuedInstType_0::SimdSqrt            0      0.00%     69.95% # Number of instructions issued per FU type, per thread (Count)
system.cpu0.statIssuedInstType_0::SimdFloatAdd      3437240      5.68%     75.63% # Number of instructions issued per FU type, per thread (Count)
system.cpu0.statIssuedInstType_0::SimdFloatAlu            0      0.00%     75.63% # Number of instructions issued per FU type, per thread (Count)
system.cpu0.statIssuedInstType_0::SimdFloatCmp            0      0.00%     75.63% # Number of instructions issued per FU type, per thread (Count)
system.cpu0.statIssuedInstType_0::SimdFloatCvt       316517      0.52%     76.15% # Number of instructions issued per FU type, per thread (Count)
system.cpu0.statIssuedInstType_0::SimdFloatDiv        66064      0.11%     76.26% # Number of instructions issued per FU type, per thread (Count)
system.cpu0.statIssuedInstType_0::SimdFloatMisc            0      0.00%     76.26% # Number of instructions issued per FU type, per thread (Count)
system.cpu0.statIssuedInstType_0::SimdFloatMult      3016037      4.98%     81.25% # Number of instructions issued per FU type, per thread (Count)
system.cpu0.statIssuedInstType_0::SimdFloatMultAcc            0      0.00%     81.25% # Number of instructions issued per FU type, per thread (Count)
system.cpu0.statIssuedInstType_0::SimdFloatSqrt            0      0.00%     81.25% # Number of instructions issued per FU type, per thread (Count)
system.cpu0.statIssuedInstType_0::SimdReduceAdd            0      0.00%     81.25% # Number of instructions issued per FU type, per thread (Count)
system.cpu0.statIssuedInstType_0::SimdReduceAlu            0      0.00%     81.25% # Number of instructions issued per FU type, per thread (Count)
system.cpu0.statIssuedInstType_0::SimdReduceCmp            0      0.00%     81.25% # Number of instructions issued per FU type, per thread (Count)
system.cpu0.statIssuedInstType_0::SimdFloatReduceAdd            0      0.00%     81.25% # Number of instructions issued per FU type, per thread (Count)
system.cpu0.statIssuedInstType_0::SimdFloatReduceCmp            0      0.00%     81.25% # Number of instructions issued per FU type, per thread (Count)
system.cpu0.statIssuedInstType_0::SimdAes            0      0.00%     81.25% # Number of instructions issued per FU type, per thread (Count)
system.cpu0.statIssuedInstType_0::SimdAesMix            0      0.00%     81.25% # Number of instructions issued per FU type, per thread (Count)
system.cpu0.statIssuedInstType_0::SimdSha1Hash            0      0.00%     81.25% # Number of instructions issued per FU type, per thread (Count)
system.cpu0.statIssuedInstType_0::SimdSha1Hash2            0      0.00%     81.25% # Number of instructions issued per FU type, per thread (Count)
system.cpu0.statIssuedInstType_0::SimdSha256Hash            0      0.00%     81.25% # Number of instructions issued per FU type, per thread (Count)
system.cpu0.statIssuedInstType_0::SimdSha256Hash2            0      0.00%     81.25% # Number of instructions issued per FU type, per thread (Count)
system.cpu0.statIssuedInstType_0::SimdShaSigma2            0      0.00%     81.25% # Number of instructions issued per FU type, per thread (Count)
system.cpu0.statIssuedInstType_0::SimdShaSigma3            0      0.00%     81.25% # Number of instructions issued per FU type, per thread (Count)
system.cpu0.statIssuedInstType_0::SimdPredAlu            0      0.00%     81.25% # Number of instructions issued per FU type, per thread (Count)
system.cpu0.statIssuedInstType_0::MemRead      3204539      5.30%     86.54% # Number of instructions issued per FU type, per thread (Count)
system.cpu0.statIssuedInstType_0::MemWrite      1617070      2.67%     89.21% # Number of instructions issued per FU type, per thread (Count)
system.cpu0.statIssuedInstType_0::FloatMemRead      4284937      7.08%     96.30% # Number of instructions issued per FU type, per thread (Count)
system.cpu0.statIssuedInstType_0::FloatMemWrite      2241407      3.70%    100.00% # Number of instructions issued per FU type, per thread (Count)
system.cpu0.statIssuedInstType_0::IprAccess            0      0.00%    100.00% # Number of instructions issued per FU type, per thread (Count)
system.cpu0.statIssuedInstType_0::InstPrefetch            0      0.00%    100.00% # Number of instructions issued per FU type, per thread (Count)
system.cpu0.statIssuedInstType_0::total      60511425                       # Number of instructions issued per FU type, per thread (Count)
system.cpu0.issueRate                        2.513821                       # Inst issue rate ((Count/Cycle))
system.cpu0.fuBusy                             462496                       # FU busy when requested (Count)
system.cpu0.fuBusyRate                       0.007643                       # FU busy rate (busy events/executed inst) ((Count/Count))
system.cpu0.intInstQueueReads                99276886                       # Number of integer instruction queue reads (Count)
system.cpu0.intInstQueueWrites               38540021                       # Number of integer instruction queue writes (Count)
system.cpu0.intInstQueueWakeupAccesses       37471416                       # Number of integer instruction queue wakeup accesses (Count)
system.cpu0.fpInstQueueReads                 46046316                       # Number of floating instruction queue reads (Count)
system.cpu0.fpInstQueueWrites                23193697                       # Number of floating instruction queue writes (Count)
system.cpu0.fpInstQueueWakeupAccesses        22923878                       # Number of floating instruction queue wakeup accesses (Count)
system.cpu0.vecInstQueueReads                       0                       # Number of vector instruction queue reads (Count)
system.cpu0.vecInstQueueWrites                      0                       # Number of vector instruction queue writes (Count)
system.cpu0.vecInstQueueWakeupAccesses              0                       # Number of vector instruction queue wakeup accesses (Count)
system.cpu0.intAluAccesses                   37100731                       # Number of integer alu accesses (Count)
system.cpu0.fpAluAccesses                    23062100                       # Number of floating point alu accesses (Count)
system.cpu0.vecAluAccesses                          0                       # Number of vector alu accesses (Count)
system.cpu0.numInsts                         60421580                       # Number of executed instructions (Count)
system.cpu0.numLoadInsts                      7467098                       # Number of load instructions executed (Count)
system.cpu0.numSquashedInsts                    89845                       # Number of squashed instructions skipped in execute (Count)
system.cpu0.numSwp                                  0                       # Number of swp insts executed (Count)
system.cpu0.numNop                                  0                       # Number of nop insts executed (Count)
system.cpu0.numRefs                          11320176                       # Number of memory reference insts executed (Count)
system.cpu0.numBranches                       3666653                       # Number of branches executed (Count)
system.cpu0.numStoreInsts                     3853078                       # Number of stores executed (Count)
system.cpu0.numRate                          2.510088                       # Inst execution rate ((Count/Cycle))
system.cpu0.timesIdled                           1336                       # Number of times that the entire CPU went into an idle state and unscheduled itself (Count)
system.cpu0.idleCycles                         241655                       # Total number of cycles that the CPU has spent unscheduled due to idling (Cycle)
system.cpu0.quiesceCycles                      187461                       # Total number of cycles that CPU has spent quiesced or waiting for an interrupt (Cycle)
system.cpu0.committedInsts                   35781578                       # Number of Instructions Simulated (Count)
system.cpu0.committedOps                     59826785                       # Number of Ops (including micro ops) Simulated (Count)
system.cpu0.cpi                              0.672734                       # CPI: Cycles Per Instruction ((Cycle/Count))
system.cpu0.totalCpi                         0.672734                       # CPI: Total CPI of All Threads ((Cycle/Count))
system.cpu0.ipc                              1.486471                       # IPC: Instructions Per Cycle ((Count/Cycle))
system.cpu0.totalIpc                         1.486471                       # IPC: Total IPC of All Threads ((Count/Cycle))
system.cpu0.intRegfileReads                  58806614                       # Number of integer regfile reads (Count)
system.cpu0.intRegfileWrites                 29389477                       # Number of integer regfile writes (Count)
system.cpu0.fpRegfileReads                   34169349                       # Number of floating regfile reads (Count)
system.cpu0.fpRegfileWrites                  20405446                       # Number of floating regfile writes (Count)
system.cpu0.ccRegfileReads                   17808922                       # number of cc regfile reads (Count)
system.cpu0.ccRegfileWrites                  18812751                       # number of cc regfile writes (Count)
system.cpu0.miscRegfileReads                 19686440                       # number of misc regfile reads (Count)
system.cpu0.miscRegfileWrites                     108                       # number of misc regfile writes (Count)
system.cpu0.MemDepUnit__0.insertedLoads       7499854                       # Number of loads inserted to the mem dependence unit. (Count)
system.cpu0.MemDepUnit__0.insertedStores      3877961                       # Number of stores inserted to the mem dependence unit. (Count)
system.cpu0.MemDepUnit__0.conflictingLoads       671801                       # Number of conflicting loads. (Count)
system.cpu0.MemDepUnit__0.conflictingStores       145977                       # Number of conflicting stores. (Count)
system.cpu0.MemDepUnit__1.insertedLoads             0                       # Number of loads inserted to the mem dependence unit. (Count)
system.cpu0.MemDepUnit__1.insertedStores            0                       # Number of stores inserted to the mem dependence unit. (Count)
system.cpu0.MemDepUnit__1.conflictingLoads            0                       # Number of conflicting loads. (Count)
system.cpu0.MemDepUnit__1.conflictingStores            0                       # Number of conflicting stores. (Count)
system.cpu0.MemDepUnit__2.insertedLoads             0                       # Number of loads inserted to the mem dependence unit. (Count)
system.cpu0.MemDepUnit__2.insertedStores            0                       # Number of stores inserted to the mem dependence unit. (Count)
system.cpu0.MemDepUnit__2.conflictingLoads            0                       # Number of conflicting loads. (Count)
system.cpu0.MemDepUnit__2.conflictingStores            0                       # Number of conflicting stores. (Count)
system.cpu0.MemDepUnit__3.insertedLoads             0                       # Number of loads inserted to the mem dependence unit. (Count)
system.cpu0.MemDepUnit__3.insertedStores            0                       # Number of stores inserted to the mem dependence unit. (Count)
system.cpu0.MemDepUnit__3.conflictingLoads            0                       # Number of conflicting loads. (Count)
system.cpu0.MemDepUnit__3.conflictingStores            0                       # Number of conflicting stores. (Count)
system.cpu0.branchPred.lookups                3751413                       # Number of BP lookups (Count)
system.cpu0.branchPred.condPredicted          2510563                       # Number of conditional branches predicted (Count)
system.cpu0.branchPred.condIncorrect            26007                       # Number of conditional branches incorrect (Count)
system.cpu0.branchPred.BTBLookups             1926977                       # Number of BTB lookups (Count)
system.cpu0.branchPred.BTBHits                1923815                       # Number of BTB hits (Count)
system.cpu0.branchPred.BTBHitRatio           0.998359                       # BTB Hit Ratio (Ratio)
system.cpu0.branchPred.RASUsed                 464287                       # Number of times the RAS was used to get a target. (Count)
system.cpu0.branchPred.RASIncorrect                 8                       # Number of incorrect RAS predictions. (Count)
system.cpu0.branchPred.indirectLookups         202332                       # Number of indirect predictor lookups. (Count)
system.cpu0.branchPred.indirectHits            198909                       # Number of indirect target hits. (Count)
system.cpu0.branchPred.indirectMisses            3423                       # Number of indirect misses. (Count)
system.cpu0.branchPred.indirectMispredicted          752                       # Number of mispredicted indirect branches. (Count)
system.cpu0.commit.commitSquashedInsts         924029                       # The number of squashed insts skipped by commit (Count)
system.cpu0.commit.commitNonSpecStalls            834                       # The number of times commit has been forced to stall to communicate backwards (Count)
system.cpu0.commit.branchMispredicts            25635                       # The number of times a branch was mispredicted (Count)
system.cpu0.commit.numCommittedDist::samples     23700113                       # Number of insts commited each cycle (Count)
system.cpu0.commit.numCommittedDist::mean     2.524325                       # Number of insts commited each cycle (Count)
system.cpu0.commit.numCommittedDist::stdev     3.072312                       # Number of insts commited each cycle (Count)
system.cpu0.commit.numCommittedDist::underflows            0      0.00%      0.00% # Number of insts commited each cycle (Count)
system.cpu0.commit.numCommittedDist::0       10181249     42.96%     42.96% # Number of insts commited each cycle (Count)
system.cpu0.commit.numCommittedDist::1        2570978     10.85%     53.81% # Number of insts commited each cycle (Count)
system.cpu0.commit.numCommittedDist::2        2713329     11.45%     65.26% # Number of insts commited each cycle (Count)
system.cpu0.commit.numCommittedDist::3        1482965      6.26%     71.51% # Number of insts commited each cycle (Count)
system.cpu0.commit.numCommittedDist::4         873726      3.69%     75.20% # Number of insts commited each cycle (Count)
system.cpu0.commit.numCommittedDist::5         636987      2.69%     77.89% # Number of insts commited each cycle (Count)
system.cpu0.commit.numCommittedDist::6         518891      2.19%     80.08% # Number of insts commited each cycle (Count)
system.cpu0.commit.numCommittedDist::7         188835      0.80%     80.87% # Number of insts commited each cycle (Count)
system.cpu0.commit.numCommittedDist::8        4533153     19.13%    100.00% # Number of insts commited each cycle (Count)
system.cpu0.commit.numCommittedDist::overflows            0      0.00%    100.00% # Number of insts commited each cycle (Count)
system.cpu0.commit.numCommittedDist::min_value            0                       # Number of insts commited each cycle (Count)
system.cpu0.commit.numCommittedDist::max_value            8                       # Number of insts commited each cycle (Count)
system.cpu0.commit.numCommittedDist::total     23700113                       # Number of insts commited each cycle (Count)
system.cpu0.commit.instsCommitted            35781578                       # Number of instructions committed (Count)
system.cpu0.commit.opsCommitted              59826785                       # Number of ops (including micro ops) committed (Count)
system.cpu0.commit.memRefs                   11236236                       # Number of memory references committed (Count)
system.cpu0.commit.loads                      7401493                       # Number of loads committed (Count)
system.cpu0.commit.amos                             0                       # Number of atomic instructions committed (Count)
system.cpu0.commit.membars                        484                       # Number of memory barriers committed (Count)
system.cpu0.commit.branches                   3628201                       # Number of branches committed (Count)
system.cpu0.commit.vectorInstructions               0                       # Number of committed Vector instructions. (Count)
system.cpu0.commit.floating                  22849161                       # Number of committed floating point instructions. (Count)
system.cpu0.commit.integer                   43057757                       # Number of committed integer instructions. (Count)
system.cpu0.commit.functionCalls               461711                       # Number of function calls committed. (Count)
system.cpu0.commit.committedInstType_0::No_OpClass       793970      1.33%      1.33% # Class of committed instruction (Count)
system.cpu0.commit.committedInstType_0::IntAlu     35486454     59.32%     60.64% # Class of committed instruction (Count)
system.cpu0.commit.committedInstType_0::IntMult       131851      0.22%     60.86% # Class of committed instruction (Count)
system.cpu0.commit.committedInstType_0::IntDiv        16865      0.03%     60.89% # Class of committed instruction (Count)
system.cpu0.commit.committedInstType_0::FloatAdd      3519991      5.88%     66.77% # Class of committed instruction (Count)
system.cpu0.commit.committedInstType_0::FloatCmp            0      0.00%     66.77% # Class of committed instruction (Count)
system.cpu0.commit.committedInstType_0::FloatCvt          192      0.00%     66.77% # Class of committed instruction (Count)
system.cpu0.commit.committedInstType_0::FloatMult            0      0.00%     66.77% # Class of committed instruction (Count)
system.cpu0.commit.committedInstType_0::FloatMultAcc            0      0.00%     66.77% # Class of committed instruction (Count)
system.cpu0.commit.committedInstType_0::FloatDiv            0      0.00%     66.77% # Class of committed instruction (Count)
system.cpu0.commit.committedInstType_0::FloatMisc            0      0.00%     66.77% # Class of committed instruction (Count)
system.cpu0.commit.committedInstType_0::FloatSqrt            0      0.00%     66.77% # Class of committed instruction (Count)
system.cpu0.commit.committedInstType_0::SimdAdd         1002      0.00%     66.78% # Class of committed instruction (Count)
system.cpu0.commit.committedInstType_0::SimdAddAcc            0      0.00%     66.78% # Class of committed instruction (Count)
system.cpu0.commit.committedInstType_0::SimdAlu      1394223      2.33%     69.11% # Class of committed instruction (Count)
system.cpu0.commit.committedInstType_0::SimdCmp            6      0.00%     69.11% # Class of committed instruction (Count)
system.cpu0.commit.committedInstType_0::SimdCvt         2600      0.00%     69.11% # Class of committed instruction (Count)
system.cpu0.commit.committedInstType_0::SimdMisc       412082      0.69%     69.80% # Class of committed instruction (Count)
system.cpu0.commit.committedInstType_0::SimdMult            0      0.00%     69.80% # Class of committed instruction (Count)
system.cpu0.commit.committedInstType_0::SimdMultAcc            0      0.00%     69.80% # Class of committed instruction (Count)
system.cpu0.commit.committedInstType_0::SimdShift          601      0.00%     69.80% # Class of committed instruction (Count)
system.cpu0.commit.committedInstType_0::SimdShiftAcc            0      0.00%     69.80% # Class of committed instruction (Count)
system.cpu0.commit.committedInstType_0::SimdDiv            0      0.00%     69.80% # Class of committed instruction (Count)
system.cpu0.commit.committedInstType_0::SimdSqrt            0      0.00%     69.80% # Class of committed instruction (Count)
system.cpu0.commit.committedInstType_0::SimdFloatAdd      3435541      5.74%     75.54% # Class of committed instruction (Count)
system.cpu0.commit.committedInstType_0::SimdFloatAlu            0      0.00%     75.54% # Class of committed instruction (Count)
system.cpu0.commit.committedInstType_0::SimdFloatCmp            0      0.00%     75.54% # Class of committed instruction (Count)
system.cpu0.commit.committedInstType_0::SimdFloatCvt       315604      0.53%     76.07% # Class of committed instruction (Count)
system.cpu0.commit.committedInstType_0::SimdFloatDiv        65794      0.11%     76.18% # Class of committed instruction (Count)
system.cpu0.commit.committedInstType_0::SimdFloatMisc            0      0.00%     76.18% # Class of committed instruction (Count)
system.cpu0.commit.committedInstType_0::SimdFloatMult      3013773      5.04%     81.22% # Class of committed instruction (Count)
system.cpu0.commit.committedInstType_0::SimdFloatMultAcc            0      0.00%     81.22% # Class of committed instruction (Count)
system.cpu0.commit.committedInstType_0::SimdFloatSqrt            0      0.00%     81.22% # Class of committed instruction (Count)
system.cpu0.commit.committedInstType_0::SimdReduceAdd            0      0.00%     81.22% # Class of committed instruction (Count)
system.cpu0.commit.committedInstType_0::SimdReduceAlu            0      0.00%     81.22% # Class of committed instruction (Count)
system.cpu0.commit.committedInstType_0::SimdReduceCmp            0      0.00%     81.22% # Class of committed instruction (Count)
system.cpu0.commit.committedInstType_0::SimdFloatReduceAdd            0      0.00%     81.22% # Class of committed instruction (Count)
system.cpu0.commit.committedInstType_0::SimdFloatReduceCmp            0      0.00%     81.22% # Class of committed instruction (Count)
system.cpu0.commit.committedInstType_0::SimdAes            0      0.00%     81.22% # Class of committed instruction (Count)
system.cpu0.commit.committedInstType_0::SimdAesMix            0      0.00%     81.22% # Class of committed instruction (Count)
system.cpu0.commit.committedInstType_0::SimdSha1Hash            0      0.00%     81.22% # Class of committed instruction (Count)
system.cpu0.commit.committedInstType_0::SimdSha1Hash2            0      0.00%     81.22% # Class of committed instruction (Count)
system.cpu0.commit.committedInstType_0::SimdSha256Hash            0      0.00%     81.22% # Class of committed instruction (Count)
system.cpu0.commit.committedInstType_0::SimdSha256Hash2            0      0.00%     81.22% # Class of committed instruction (Count)
system.cpu0.commit.committedInstType_0::SimdShaSigma2            0      0.00%     81.22% # Class of committed instruction (Count)
system.cpu0.commit.committedInstType_0::SimdShaSigma3            0      0.00%     81.22% # Class of committed instruction (Count)
system.cpu0.commit.committedInstType_0::SimdPredAlu            0      0.00%     81.22% # Class of committed instruction (Count)
system.cpu0.commit.committedInstType_0::MemRead      3165187      5.29%     86.51% # Class of committed instruction (Count)
system.cpu0.commit.committedInstType_0::MemWrite      1603915      2.68%     89.19% # Class of committed instruction (Count)
system.cpu0.commit.committedInstType_0::FloatMemRead      4236306      7.08%     96.27% # Class of committed instruction (Count)
system.cpu0.commit.committedInstType_0::FloatMemWrite      2230828      3.73%    100.00% # Class of committed instruction (Count)
system.cpu0.commit.committedInstType_0::IprAccess            0      0.00%    100.00% # Class of committed instruction (Count)
system.cpu0.commit.committedInstType_0::InstPrefetch            0      0.00%    100.00% # Class of committed instruction (Count)
system.cpu0.commit.committedInstType_0::total     59826785                       # Class of committed instruction (Count)
system.cpu0.commit.commitEligibleSamples      4533153                       # number cycles where commit BW limit reached (Cycle)
system.cpu0.dcache.demandHits::cpu0.data      8734878                       # number of demand (read+write) hits (Count)
system.cpu0.dcache.demandHits::total          8734878                       # number of demand (read+write) hits (Count)
system.cpu0.dcache.overallHits::cpu0.data      8734878                       # number of overall hits (Count)
system.cpu0.dcache.overallHits::total         8734878                       # number of overall hits (Count)
system.cpu0.dcache.demandMisses::cpu0.data       297515                       # number of demand (read+write) misses (Count)
system.cpu0.dcache.demandMisses::total         297515                       # number of demand (read+write) misses (Count)
system.cpu0.dcache.overallMisses::cpu0.data       297515                       # number of overall misses (Count)
system.cpu0.dcache.overallMisses::total        297515                       # number of overall misses (Count)
system.cpu0.dcache.demandMissLatency::cpu0.data   7551954413                       # number of demand (read+write) miss ticks (Tick)
system.cpu0.dcache.demandMissLatency::total   7551954413                       # number of demand (read+write) miss ticks (Tick)
system.cpu0.dcache.overallMissLatency::cpu0.data   7551954413                       # number of overall miss ticks (Tick)
system.cpu0.dcache.overallMissLatency::total   7551954413                       # number of overall miss ticks (Tick)
system.cpu0.dcache.demandAccesses::cpu0.data      9032393                       # number of demand (read+write) accesses (Count)
system.cpu0.dcache.demandAccesses::total      9032393                       # number of demand (read+write) accesses (Count)
system.cpu0.dcache.overallAccesses::cpu0.data      9032393                       # number of overall (read+write) accesses (Count)
system.cpu0.dcache.overallAccesses::total      9032393                       # number of overall (read+write) accesses (Count)
system.cpu0.dcache.demandMissRate::cpu0.data     0.032939                       # miss rate for demand accesses (Ratio)
system.cpu0.dcache.demandMissRate::total     0.032939                       # miss rate for demand accesses (Ratio)
system.cpu0.dcache.overallMissRate::cpu0.data     0.032939                       # miss rate for overall accesses (Ratio)
system.cpu0.dcache.overallMissRate::total     0.032939                       # miss rate for overall accesses (Ratio)
system.cpu0.dcache.demandAvgMissLatency::cpu0.data 25383.440879                       # average overall miss latency in ticks ((Tick/Count))
system.cpu0.dcache.demandAvgMissLatency::total 25383.440879                       # average overall miss latency in ticks ((Tick/Count))
system.cpu0.dcache.overallAvgMissLatency::cpu0.data 25383.440879                       # average overall miss latency ((Tick/Count))
system.cpu0.dcache.overallAvgMissLatency::total 25383.440879                       # average overall miss latency ((Tick/Count))
system.cpu0.dcache.blockedCycles::no_mshrs        59567                       # number of cycles access was blocked (Cycle)
system.cpu0.dcache.blockedCycles::no_targets           54                       # number of cycles access was blocked (Cycle)
system.cpu0.dcache.blockedCauses::no_mshrs         3345                       # number of times access was blocked (Count)
system.cpu0.dcache.blockedCauses::no_targets            3                       # number of times access was blocked (Count)
system.cpu0.dcache.avgBlocked::no_mshrs     17.807773                       # average number of cycles each access was blocked ((Cycle/Count))
system.cpu0.dcache.avgBlocked::no_targets           18                       # average number of cycles each access was blocked ((Cycle/Count))
system.cpu0.dcache.writebacks::writebacks        93670                       # number of writebacks (Count)
system.cpu0.dcache.writebacks::total            93670                       # number of writebacks (Count)
system.cpu0.dcache.demandMshrHits::cpu0.data       184206                       # number of demand (read+write) MSHR hits (Count)
system.cpu0.dcache.demandMshrHits::total       184206                       # number of demand (read+write) MSHR hits (Count)
system.cpu0.dcache.overallMshrHits::cpu0.data       184206                       # number of overall MSHR hits (Count)
system.cpu0.dcache.overallMshrHits::total       184206                       # number of overall MSHR hits (Count)
system.cpu0.dcache.demandMshrMisses::cpu0.data       113309                       # number of demand (read+write) MSHR misses (Count)
system.cpu0.dcache.demandMshrMisses::total       113309                       # number of demand (read+write) MSHR misses (Count)
system.cpu0.dcache.overallMshrMisses::cpu0.data       113309                       # number of overall MSHR misses (Count)
system.cpu0.dcache.overallMshrMisses::total       113309                       # number of overall MSHR misses (Count)
system.cpu0.dcache.demandMshrMissLatency::cpu0.data   4857574157                       # number of demand (read+write) MSHR miss ticks (Tick)
system.cpu0.dcache.demandMshrMissLatency::total   4857574157                       # number of demand (read+write) MSHR miss ticks (Tick)
system.cpu0.dcache.overallMshrMissLatency::cpu0.data   4857574157                       # number of overall MSHR miss ticks (Tick)
system.cpu0.dcache.overallMshrMissLatency::total   4857574157                       # number of overall MSHR miss ticks (Tick)
system.cpu0.dcache.demandMshrMissRate::cpu0.data     0.012545                       # mshr miss ratio for demand accesses (Ratio)
system.cpu0.dcache.demandMshrMissRate::total     0.012545                       # mshr miss ratio for demand accesses (Ratio)
system.cpu0.dcache.overallMshrMissRate::cpu0.data     0.012545                       # mshr miss ratio for overall accesses (Ratio)
system.cpu0.dcache.overallMshrMissRate::total     0.012545                       # mshr miss ratio for overall accesses (Ratio)
system.cpu0.dcache.demandAvgMshrMissLatency::cpu0.data 42870.152918                       # average overall mshr miss latency ((Tick/Count))
system.cpu0.dcache.demandAvgMshrMissLatency::total 42870.152918                       # average overall mshr miss latency ((Tick/Count))
system.cpu0.dcache.overallAvgMshrMissLatency::cpu0.data 42870.152918                       # average overall mshr miss latency ((Tick/Count))
system.cpu0.dcache.overallAvgMshrMissLatency::total 42870.152918                       # average overall mshr miss latency ((Tick/Count))
system.cpu0.dcache.replacements                112700                       # number of replacements (Count)
system.cpu0.dcache.LockedRMWReadReq.hits::cpu0.data          211                       # number of LockedRMWReadReq hits (Count)
system.cpu0.dcache.LockedRMWReadReq.hits::total          211                       # number of LockedRMWReadReq hits (Count)
system.cpu0.dcache.LockedRMWReadReq.misses::cpu0.data           31                       # number of LockedRMWReadReq misses (Count)
system.cpu0.dcache.LockedRMWReadReq.misses::total           31                       # number of LockedRMWReadReq misses (Count)
system.cpu0.dcache.LockedRMWReadReq.missLatency::cpu0.data       596403                       # number of LockedRMWReadReq miss ticks (Tick)
system.cpu0.dcache.LockedRMWReadReq.missLatency::total       596403                       # number of LockedRMWReadReq miss ticks (Tick)
system.cpu0.dcache.LockedRMWReadReq.accesses::cpu0.data          242                       # number of LockedRMWReadReq accesses(hits+misses) (Count)
system.cpu0.dcache.LockedRMWReadReq.accesses::total          242                       # number of LockedRMWReadReq accesses(hits+misses) (Count)
system.cpu0.dcache.LockedRMWReadReq.missRate::cpu0.data     0.128099                       # miss rate for LockedRMWReadReq accesses (Ratio)
system.cpu0.dcache.LockedRMWReadReq.missRate::total     0.128099                       # miss rate for LockedRMWReadReq accesses (Ratio)
system.cpu0.dcache.LockedRMWReadReq.avgMissLatency::cpu0.data 19238.806452                       # average LockedRMWReadReq miss latency ((Tick/Count))
system.cpu0.dcache.LockedRMWReadReq.avgMissLatency::total 19238.806452                       # average LockedRMWReadReq miss latency ((Tick/Count))
system.cpu0.dcache.LockedRMWReadReq.mshrMisses::cpu0.data           31                       # number of LockedRMWReadReq MSHR misses (Count)
system.cpu0.dcache.LockedRMWReadReq.mshrMisses::total           31                       # number of LockedRMWReadReq MSHR misses (Count)
system.cpu0.dcache.LockedRMWReadReq.mshrMissLatency::cpu0.data      1917082                       # number of LockedRMWReadReq MSHR miss ticks (Tick)
system.cpu0.dcache.LockedRMWReadReq.mshrMissLatency::total      1917082                       # number of LockedRMWReadReq MSHR miss ticks (Tick)
system.cpu0.dcache.LockedRMWReadReq.mshrMissRate::cpu0.data     0.128099                       # mshr miss rate for LockedRMWReadReq accesses (Ratio)
system.cpu0.dcache.LockedRMWReadReq.mshrMissRate::total     0.128099                       # mshr miss rate for LockedRMWReadReq accesses (Ratio)
system.cpu0.dcache.LockedRMWReadReq.avgMshrMissLatency::cpu0.data 61841.354839                       # average LockedRMWReadReq mshr miss latency ((Tick/Count))
system.cpu0.dcache.LockedRMWReadReq.avgMshrMissLatency::total 61841.354839                       # average LockedRMWReadReq mshr miss latency ((Tick/Count))
system.cpu0.dcache.LockedRMWWriteReq.hits::cpu0.data          242                       # number of LockedRMWWriteReq hits (Count)
system.cpu0.dcache.LockedRMWWriteReq.hits::total          242                       # number of LockedRMWWriteReq hits (Count)
system.cpu0.dcache.LockedRMWWriteReq.accesses::cpu0.data          242                       # number of LockedRMWWriteReq accesses(hits+misses) (Count)
system.cpu0.dcache.LockedRMWWriteReq.accesses::total          242                       # number of LockedRMWWriteReq accesses(hits+misses) (Count)
system.cpu0.dcache.ReadReq.hits::cpu0.data      4959457                       # number of ReadReq hits (Count)
system.cpu0.dcache.ReadReq.hits::total        4959457                       # number of ReadReq hits (Count)
system.cpu0.dcache.ReadReq.misses::cpu0.data       238412                       # number of ReadReq misses (Count)
system.cpu0.dcache.ReadReq.misses::total       238412                       # number of ReadReq misses (Count)
system.cpu0.dcache.ReadReq.missLatency::cpu0.data   3507334488                       # number of ReadReq miss ticks (Tick)
system.cpu0.dcache.ReadReq.missLatency::total   3507334488                       # number of ReadReq miss ticks (Tick)
system.cpu0.dcache.ReadReq.accesses::cpu0.data      5197869                       # number of ReadReq accesses(hits+misses) (Count)
system.cpu0.dcache.ReadReq.accesses::total      5197869                       # number of ReadReq accesses(hits+misses) (Count)
system.cpu0.dcache.ReadReq.missRate::cpu0.data     0.045867                       # miss rate for ReadReq accesses (Ratio)
system.cpu0.dcache.ReadReq.missRate::total     0.045867                       # miss rate for ReadReq accesses (Ratio)
system.cpu0.dcache.ReadReq.avgMissLatency::cpu0.data 14711.233025                       # average ReadReq miss latency ((Tick/Count))
system.cpu0.dcache.ReadReq.avgMissLatency::total 14711.233025                       # average ReadReq miss latency ((Tick/Count))
system.cpu0.dcache.ReadReq.mshrHits::cpu0.data       184198                       # number of ReadReq MSHR hits (Count)
system.cpu0.dcache.ReadReq.mshrHits::total       184198                       # number of ReadReq MSHR hits (Count)
system.cpu0.dcache.ReadReq.mshrMisses::cpu0.data        54214                       # number of ReadReq MSHR misses (Count)
system.cpu0.dcache.ReadReq.mshrMisses::total        54214                       # number of ReadReq MSHR misses (Count)
system.cpu0.dcache.ReadReq.mshrMissLatency::cpu0.data    852679467                       # number of ReadReq MSHR miss ticks (Tick)
system.cpu0.dcache.ReadReq.mshrMissLatency::total    852679467                       # number of ReadReq MSHR miss ticks (Tick)
system.cpu0.dcache.ReadReq.mshrMissRate::cpu0.data     0.010430                       # mshr miss rate for ReadReq accesses (Ratio)
system.cpu0.dcache.ReadReq.mshrMissRate::total     0.010430                       # mshr miss rate for ReadReq accesses (Ratio)
system.cpu0.dcache.ReadReq.avgMshrMissLatency::cpu0.data 15728.030896                       # average ReadReq mshr miss latency ((Tick/Count))
system.cpu0.dcache.ReadReq.avgMshrMissLatency::total 15728.030896                       # average ReadReq mshr miss latency ((Tick/Count))
system.cpu0.dcache.WriteReq.hits::cpu0.data      3775421                       # number of WriteReq hits (Count)
system.cpu0.dcache.WriteReq.hits::total       3775421                       # number of WriteReq hits (Count)
system.cpu0.dcache.WriteReq.misses::cpu0.data        59103                       # number of WriteReq misses (Count)
system.cpu0.dcache.WriteReq.misses::total        59103                       # number of WriteReq misses (Count)
system.cpu0.dcache.WriteReq.missLatency::cpu0.data   4044619925                       # number of WriteReq miss ticks (Tick)
system.cpu0.dcache.WriteReq.missLatency::total   4044619925                       # number of WriteReq miss ticks (Tick)
system.cpu0.dcache.WriteReq.accesses::cpu0.data      3834524                       # number of WriteReq accesses(hits+misses) (Count)
system.cpu0.dcache.WriteReq.accesses::total      3834524                       # number of WriteReq accesses(hits+misses) (Count)
system.cpu0.dcache.WriteReq.missRate::cpu0.data     0.015413                       # miss rate for WriteReq accesses (Ratio)
system.cpu0.dcache.WriteReq.missRate::total     0.015413                       # miss rate for WriteReq accesses (Ratio)
system.cpu0.dcache.WriteReq.avgMissLatency::cpu0.data 68433.411587                       # average WriteReq miss latency ((Tick/Count))
system.cpu0.dcache.WriteReq.avgMissLatency::total 68433.411587                       # average WriteReq miss latency ((Tick/Count))
system.cpu0.dcache.WriteReq.mshrHits::cpu0.data            8                       # number of WriteReq MSHR hits (Count)
system.cpu0.dcache.WriteReq.mshrHits::total            8                       # number of WriteReq MSHR hits (Count)
system.cpu0.dcache.WriteReq.mshrMisses::cpu0.data        59095                       # number of WriteReq MSHR misses (Count)
system.cpu0.dcache.WriteReq.mshrMisses::total        59095                       # number of WriteReq MSHR misses (Count)
system.cpu0.dcache.WriteReq.mshrMissLatency::cpu0.data   4004894690                       # number of WriteReq MSHR miss ticks (Tick)
system.cpu0.dcache.WriteReq.mshrMissLatency::total   4004894690                       # number of WriteReq MSHR miss ticks (Tick)
system.cpu0.dcache.WriteReq.mshrMissRate::cpu0.data     0.015411                       # mshr miss rate for WriteReq accesses (Ratio)
system.cpu0.dcache.WriteReq.mshrMissRate::total     0.015411                       # mshr miss rate for WriteReq accesses (Ratio)
system.cpu0.dcache.WriteReq.avgMshrMissLatency::cpu0.data 67770.449107                       # average WriteReq mshr miss latency ((Tick/Count))
system.cpu0.dcache.WriteReq.avgMshrMissLatency::total 67770.449107                       # average WriteReq mshr miss latency ((Tick/Count))
system.cpu0.dcache.power_state.pwrStateResidencyTicks::UNDEFINED   8078232015                       # Cumulative time (in ticks) in various power states (Tick)
system.cpu0.dcache.tags.tagsInUse          510.057062                       # Average ticks per tags in use ((Tick/Count))
system.cpu0.dcache.tags.totalRefs             8848681                       # Total number of references to valid blocks. (Count)
system.cpu0.dcache.tags.sampledRefs            113255                       # Sample count of references to valid blocks. (Count)
system.cpu0.dcache.tags.avgRefs             78.130599                       # Average number of references to valid blocks. ((Count/Count))
system.cpu0.dcache.tags.warmupTick             189144                       # The tick when the warmup percentage was hit. (Tick)
system.cpu0.dcache.tags.occupancies::cpu0.data   510.057062                       # Average occupied blocks per tick, per requestor ((Count/Tick))
system.cpu0.dcache.tags.avgOccs::cpu0.data     0.996205                       # Average percentage of cache occupancy ((Ratio/Tick))
system.cpu0.dcache.tags.avgOccs::total       0.996205                       # Average percentage of cache occupancy ((Ratio/Tick))
system.cpu0.dcache.tags.occupanciesTaskId::1024          512                       # Occupied blocks per task id (Count)
system.cpu0.dcache.tags.ageTaskId_1024::0           91                       # Occupied blocks per task id, per block age (Count)
system.cpu0.dcache.tags.ageTaskId_1024::1          421                       # Occupied blocks per task id, per block age (Count)
system.cpu0.dcache.tags.ratioOccsTaskId::1024            1                       # Ratio of occupied blocks and all blocks, per task id (Ratio)
system.cpu0.dcache.tags.tagAccesses          72376271                       # Number of tag accesses (Count)
system.cpu0.dcache.tags.dataAccesses         72376271                       # Number of data accesses (Count)
system.cpu0.dcache.tags.power_state.pwrStateResidencyTicks::UNDEFINED   8078232015                       # Cumulative time (in ticks) in various power states (Tick)
system.cpu0.decode.idleCycles                 4346708                       # Number of cycles decode is idle (Cycle)
system.cpu0.decode.blockedCycles             10011225                       # Number of cycles decode is blocked (Cycle)
system.cpu0.decode.runCycles                  9129647                       # Number of cycles decode is running (Cycle)
system.cpu0.decode.unblockCycles               315424                       # Number of cycles decode is unblocking (Cycle)
system.cpu0.decode.squashCycles                 26836                       # Number of cycles decode is squashing (Cycle)
system.cpu0.decode.branchResolved             1915474                       # Number of times decode resolved a branch (Count)
system.cpu0.decode.branchMispred                  953                       # Number of times decode detected a branch misprediction (Count)
system.cpu0.decode.decodedInsts              61138225                       # Number of instructions handled by decode (Count)
system.cpu0.decode.squashedInsts                 4588                       # Number of squashed instructions handled by decode (Count)
system.cpu0.dtb_walker_cache.blockedCycles::no_mshrs            0                       # number of cycles access was blocked (Cycle)
system.cpu0.dtb_walker_cache.blockedCycles::no_targets            0                       # number of cycles access was blocked (Cycle)
system.cpu0.dtb_walker_cache.blockedCauses::no_mshrs            0                       # number of times access was blocked (Count)
system.cpu0.dtb_walker_cache.blockedCauses::no_targets            0                       # number of times access was blocked (Count)
system.cpu0.dtb_walker_cache.avgBlocked::no_mshrs          nan                       # average number of cycles each access was blocked ((Cycle/Count))
system.cpu0.dtb_walker_cache.avgBlocked::no_targets          nan                       # average number of cycles each access was blocked ((Cycle/Count))
system.cpu0.dtb_walker_cache.replacements            0                       # number of replacements (Count)
system.cpu0.dtb_walker_cache.power_state.pwrStateResidencyTicks::UNDEFINED   8078232015                       # Cumulative time (in ticks) in various power states (Tick)
system.cpu0.dtb_walker_cache.tags.tagsInUse            0                       # Average ticks per tags in use ((Tick/Count))
system.cpu0.dtb_walker_cache.tags.totalRefs            0                       # Total number of references to valid blocks. (Count)
system.cpu0.dtb_walker_cache.tags.sampledRefs            0                       # Sample count of references to valid blocks. (Count)
system.cpu0.dtb_walker_cache.tags.avgRefs          nan                       # Average number of references to valid blocks. ((Count/Count))
system.cpu0.dtb_walker_cache.tags.warmupTick            0                       # The tick when the warmup percentage was hit. (Tick)
system.cpu0.dtb_walker_cache.tags.tagAccesses            0                       # Number of tag accesses (Count)
system.cpu0.dtb_walker_cache.tags.dataAccesses            0                       # Number of data accesses (Count)
system.cpu0.dtb_walker_cache.tags.power_state.pwrStateResidencyTicks::UNDEFINED   8078232015                       # Cumulative time (in ticks) in various power states (Tick)
system.cpu0.fetch.icacheStallCycles           4236673                       # Number of cycles fetch is stalled on an Icache miss (Cycle)
system.cpu0.fetch.insts                      36698041                       # Number of instructions fetch has processed (Count)
system.cpu0.fetch.branches                    3751413                       # Number of branches that fetch encountered (Count)
system.cpu0.fetch.predictedBranches           2587011                       # Number of branches that fetch has predicted taken (Count)
system.cpu0.fetch.cycles                     19560270                       # Number of cycles fetch has run and was not squashing or blocked (Cycle)
system.cpu0.fetch.squashCycles                  55548                       # Number of cycles fetch has spent squashing (Cycle)
system.cpu0.fetch.miscStallCycles                 674                       # Number of cycles fetch has spent waiting on interrupts, or bad addresses, or out of MSHRs (Cycle)
system.cpu0.fetch.pendingTrapStallCycles         4407                       # Number of stall cycles due to pending traps (Cycle)
system.cpu0.fetch.icacheWaitRetryStallCycles           42                       # Number of stall cycles due to full MSHR (Cycle)
system.cpu0.fetch.cacheLines                  4143504                       # Number of cache lines fetched (Count)
system.cpu0.fetch.icacheSquashes                 3991                       # Number of outstanding Icache misses that were squashed (Count)
system.cpu0.fetch.nisnDist::samples          23829840                       # Number of instructions fetched each cycle (Total) (Count)
system.cpu0.fetch.nisnDist::mean             2.575180                       # Number of instructions fetched each cycle (Total) (Count)
system.cpu0.fetch.nisnDist::stdev            3.446563                       # Number of instructions fetched each cycle (Total) (Count)
system.cpu0.fetch.nisnDist::underflows              0      0.00%      0.00% # Number of instructions fetched each cycle (Total) (Count)
system.cpu0.fetch.nisnDist::0                14087466     59.12%     59.12% # Number of instructions fetched each cycle (Total) (Count)
system.cpu0.fetch.nisnDist::1                  726952      3.05%     62.17% # Number of instructions fetched each cycle (Total) (Count)
system.cpu0.fetch.nisnDist::2                  312625      1.31%     63.48% # Number of instructions fetched each cycle (Total) (Count)
system.cpu0.fetch.nisnDist::3                  657057      2.76%     66.24% # Number of instructions fetched each cycle (Total) (Count)
system.cpu0.fetch.nisnDist::4                  691086      2.90%     69.14% # Number of instructions fetched each cycle (Total) (Count)
system.cpu0.fetch.nisnDist::5                  625088      2.62%     71.76% # Number of instructions fetched each cycle (Total) (Count)
system.cpu0.fetch.nisnDist::6                  542183      2.28%     74.04% # Number of instructions fetched each cycle (Total) (Count)
system.cpu0.fetch.nisnDist::7                  599197      2.51%     76.55% # Number of instructions fetched each cycle (Total) (Count)
system.cpu0.fetch.nisnDist::8                 5588186     23.45%    100.00% # Number of instructions fetched each cycle (Total) (Count)
system.cpu0.fetch.nisnDist::overflows               0      0.00%    100.00% # Number of instructions fetched each cycle (Total) (Count)
system.cpu0.fetch.nisnDist::min_value               0                       # Number of instructions fetched each cycle (Total) (Count)
system.cpu0.fetch.nisnDist::max_value               8                       # Number of instructions fetched each cycle (Total) (Count)
system.cpu0.fetch.nisnDist::total            23829840                       # Number of instructions fetched each cycle (Total) (Count)
system.cpu0.fetch.branchRate                 0.155845                       # Number of branch fetches per cycle (Ratio)
system.cpu0.fetch.rate                       1.524543                       # Number of inst fetches per cycle ((Count/Cycle))
system.cpu0.icache.demandHits::cpu0.inst      4140874                       # number of demand (read+write) hits (Count)
system.cpu0.icache.demandHits::total          4140874                       # number of demand (read+write) hits (Count)
system.cpu0.icache.overallHits::cpu0.inst      4140874                       # number of overall hits (Count)
system.cpu0.icache.overallHits::total         4140874                       # number of overall hits (Count)
system.cpu0.icache.demandMisses::cpu0.inst         2629                       # number of demand (read+write) misses (Count)
system.cpu0.icache.demandMisses::total           2629                       # number of demand (read+write) misses (Count)
system.cpu0.icache.overallMisses::cpu0.inst         2629                       # number of overall misses (Count)
system.cpu0.icache.overallMisses::total          2629                       # number of overall misses (Count)
system.cpu0.icache.demandMissLatency::cpu0.inst    202132664                       # number of demand (read+write) miss ticks (Tick)
system.cpu0.icache.demandMissLatency::total    202132664                       # number of demand (read+write) miss ticks (Tick)
system.cpu0.icache.overallMissLatency::cpu0.inst    202132664                       # number of overall miss ticks (Tick)
system.cpu0.icache.overallMissLatency::total    202132664                       # number of overall miss ticks (Tick)
system.cpu0.icache.demandAccesses::cpu0.inst      4143503                       # number of demand (read+write) accesses (Count)
system.cpu0.icache.demandAccesses::total      4143503                       # number of demand (read+write) accesses (Count)
system.cpu0.icache.overallAccesses::cpu0.inst      4143503                       # number of overall (read+write) accesses (Count)
system.cpu0.icache.overallAccesses::total      4143503                       # number of overall (read+write) accesses (Count)
system.cpu0.icache.demandMissRate::cpu0.inst     0.000634                       # miss rate for demand accesses (Ratio)
system.cpu0.icache.demandMissRate::total     0.000634                       # miss rate for demand accesses (Ratio)
system.cpu0.icache.overallMissRate::cpu0.inst     0.000634                       # miss rate for overall accesses (Ratio)
system.cpu0.icache.overallMissRate::total     0.000634                       # miss rate for overall accesses (Ratio)
system.cpu0.icache.demandAvgMissLatency::cpu0.inst 76885.760365                       # average overall miss latency in ticks ((Tick/Count))
system.cpu0.icache.demandAvgMissLatency::total 76885.760365                       # average overall miss latency in ticks ((Tick/Count))
system.cpu0.icache.overallAvgMissLatency::cpu0.inst 76885.760365                       # average overall miss latency ((Tick/Count))
system.cpu0.icache.overallAvgMissLatency::total 76885.760365                       # average overall miss latency ((Tick/Count))
system.cpu0.icache.blockedCycles::no_mshrs         1707                       # number of cycles access was blocked (Cycle)
system.cpu0.icache.blockedCycles::no_targets            0                       # number of cycles access was blocked (Cycle)
system.cpu0.icache.blockedCauses::no_mshrs           13                       # number of times access was blocked (Count)
system.cpu0.icache.blockedCauses::no_targets            0                       # number of times access was blocked (Count)
system.cpu0.icache.avgBlocked::no_mshrs    131.307692                       # average number of cycles each access was blocked ((Cycle/Count))
system.cpu0.icache.avgBlocked::no_targets          nan                       # average number of cycles each access was blocked ((Cycle/Count))
system.cpu0.icache.writebacks::writebacks         1478                       # number of writebacks (Count)
system.cpu0.icache.writebacks::total             1478                       # number of writebacks (Count)
system.cpu0.icache.demandMshrHits::cpu0.inst          638                       # number of demand (read+write) MSHR hits (Count)
system.cpu0.icache.demandMshrHits::total          638                       # number of demand (read+write) MSHR hits (Count)
system.cpu0.icache.overallMshrHits::cpu0.inst          638                       # number of overall MSHR hits (Count)
system.cpu0.icache.overallMshrHits::total          638                       # number of overall MSHR hits (Count)
system.cpu0.icache.demandMshrMisses::cpu0.inst         1991                       # number of demand (read+write) MSHR misses (Count)
system.cpu0.icache.demandMshrMisses::total         1991                       # number of demand (read+write) MSHR misses (Count)
system.cpu0.icache.overallMshrMisses::cpu0.inst         1991                       # number of overall MSHR misses (Count)
system.cpu0.icache.overallMshrMisses::total         1991                       # number of overall MSHR misses (Count)
system.cpu0.icache.demandMshrMissLatency::cpu0.inst    157475366                       # number of demand (read+write) MSHR miss ticks (Tick)
system.cpu0.icache.demandMshrMissLatency::total    157475366                       # number of demand (read+write) MSHR miss ticks (Tick)
system.cpu0.icache.overallMshrMissLatency::cpu0.inst    157475366                       # number of overall MSHR miss ticks (Tick)
system.cpu0.icache.overallMshrMissLatency::total    157475366                       # number of overall MSHR miss ticks (Tick)
system.cpu0.icache.demandMshrMissRate::cpu0.inst     0.000481                       # mshr miss ratio for demand accesses (Ratio)
system.cpu0.icache.demandMshrMissRate::total     0.000481                       # mshr miss ratio for demand accesses (Ratio)
system.cpu0.icache.overallMshrMissRate::cpu0.inst     0.000481                       # mshr miss ratio for overall accesses (Ratio)
system.cpu0.icache.overallMshrMissRate::total     0.000481                       # mshr miss ratio for overall accesses (Ratio)
system.cpu0.icache.demandAvgMshrMissLatency::cpu0.inst 79093.604219                       # average overall mshr miss latency ((Tick/Count))
system.cpu0.icache.demandAvgMshrMissLatency::total 79093.604219                       # average overall mshr miss latency ((Tick/Count))
system.cpu0.icache.overallAvgMshrMissLatency::cpu0.inst 79093.604219                       # average overall mshr miss latency ((Tick/Count))
system.cpu0.icache.overallAvgMshrMissLatency::total 79093.604219                       # average overall mshr miss latency ((Tick/Count))
system.cpu0.icache.replacements                  1478                       # number of replacements (Count)
system.cpu0.icache.ReadReq.hits::cpu0.inst      4140874                       # number of ReadReq hits (Count)
system.cpu0.icache.ReadReq.hits::total        4140874                       # number of ReadReq hits (Count)
system.cpu0.icache.ReadReq.misses::cpu0.inst         2629                       # number of ReadReq misses (Count)
system.cpu0.icache.ReadReq.misses::total         2629                       # number of ReadReq misses (Count)
system.cpu0.icache.ReadReq.missLatency::cpu0.inst    202132664                       # number of ReadReq miss ticks (Tick)
system.cpu0.icache.ReadReq.missLatency::total    202132664                       # number of ReadReq miss ticks (Tick)
system.cpu0.icache.ReadReq.accesses::cpu0.inst      4143503                       # number of ReadReq accesses(hits+misses) (Count)
system.cpu0.icache.ReadReq.accesses::total      4143503                       # number of ReadReq accesses(hits+misses) (Count)
system.cpu0.icache.ReadReq.missRate::cpu0.inst     0.000634                       # miss rate for ReadReq accesses (Ratio)
system.cpu0.icache.ReadReq.missRate::total     0.000634                       # miss rate for ReadReq accesses (Ratio)
system.cpu0.icache.ReadReq.avgMissLatency::cpu0.inst 76885.760365                       # average ReadReq miss latency ((Tick/Count))
system.cpu0.icache.ReadReq.avgMissLatency::total 76885.760365                       # average ReadReq miss latency ((Tick/Count))
system.cpu0.icache.ReadReq.mshrHits::cpu0.inst          638                       # number of ReadReq MSHR hits (Count)
system.cpu0.icache.ReadReq.mshrHits::total          638                       # number of ReadReq MSHR hits (Count)
system.cpu0.icache.ReadReq.mshrMisses::cpu0.inst         1991                       # number of ReadReq MSHR misses (Count)
system.cpu0.icache.ReadReq.mshrMisses::total         1991                       # number of ReadReq MSHR misses (Count)
system.cpu0.icache.ReadReq.mshrMissLatency::cpu0.inst    157475366                       # number of ReadReq MSHR miss ticks (Tick)
system.cpu0.icache.ReadReq.mshrMissLatency::total    157475366                       # number of ReadReq MSHR miss ticks (Tick)
system.cpu0.icache.ReadReq.mshrMissRate::cpu0.inst     0.000481                       # mshr miss rate for ReadReq accesses (Ratio)
system.cpu0.icache.ReadReq.mshrMissRate::total     0.000481                       # mshr miss rate for ReadReq accesses (Ratio)
system.cpu0.icache.ReadReq.avgMshrMissLatency::cpu0.inst 79093.604219                       # average ReadReq mshr miss latency ((Tick/Count))
system.cpu0.icache.ReadReq.avgMshrMissLatency::total 79093.604219                       # average ReadReq mshr miss latency ((Tick/Count))
system.cpu0.icache.power_state.pwrStateResidencyTicks::UNDEFINED   8078232015                       # Cumulative time (in ticks) in various power states (Tick)
system.cpu0.icache.tags.tagsInUse          510.535705                       # Average ticks per tags in use ((Tick/Count))
system.cpu0.icache.tags.totalRefs             4142864                       # Total number of references to valid blocks. (Count)
system.cpu0.icache.tags.sampledRefs              1990                       # Sample count of references to valid blocks. (Count)
system.cpu0.icache.tags.avgRefs           2081.841206                       # Average number of references to valid blocks. ((Count/Count))
system.cpu0.icache.tags.warmupTick              92241                       # The tick when the warmup percentage was hit. (Tick)
system.cpu0.icache.tags.occupancies::cpu0.inst   510.535705                       # Average occupied blocks per tick, per requestor ((Count/Tick))
system.cpu0.icache.tags.avgOccs::cpu0.inst     0.997140                       # Average percentage of cache occupancy ((Ratio/Tick))
system.cpu0.icache.tags.avgOccs::total       0.997140                       # Average percentage of cache occupancy ((Ratio/Tick))
system.cpu0.icache.tags.occupanciesTaskId::1024          512                       # Occupied blocks per task id (Count)
system.cpu0.icache.tags.ageTaskId_1024::0          134                       # Occupied blocks per task id, per block age (Count)
system.cpu0.icache.tags.ageTaskId_1024::1          106                       # Occupied blocks per task id, per block age (Count)
system.cpu0.icache.tags.ageTaskId_1024::2            3                       # Occupied blocks per task id, per block age (Count)
system.cpu0.icache.tags.ageTaskId_1024::3          269                       # Occupied blocks per task id, per block age (Count)
system.cpu0.icache.tags.ratioOccsTaskId::1024            1                       # Ratio of occupied blocks and all blocks, per task id (Ratio)
system.cpu0.icache.tags.tagAccesses          33150014                       # Number of tag accesses (Count)
system.cpu0.icache.tags.dataAccesses         33150014                       # Number of data accesses (Count)
system.cpu0.icache.tags.power_state.pwrStateResidencyTicks::UNDEFINED   8078232015                       # Cumulative time (in ticks) in various power states (Tick)
system.cpu0.iew.idleCycles                          0                       # Number of cycles IEW is idle (Cycle)
system.cpu0.iew.squashCycles                    26836                       # Number of cycles IEW is squashing (Cycle)
system.cpu0.iew.blockCycles                    369267                       # Number of cycles IEW is blocking (Cycle)
system.cpu0.iew.unblockCycles                   34252                       # Number of cycles IEW is unblocking (Cycle)
system.cpu0.iew.dispatchedInsts              60780115                       # Number of instructions dispatched to IQ (Count)
system.cpu0.iew.dispSquashedInsts                2878                       # Number of squashed instructions skipped by dispatch (Count)
system.cpu0.iew.dispLoadInsts                 7499854                       # Number of dispatched load instructions (Count)
system.cpu0.iew.dispStoreInsts                3877961                       # Number of dispatched store instructions (Count)
system.cpu0.iew.dispNonSpecInsts                  618                       # Number of dispatched non-speculative instructions (Count)
system.cpu0.iew.iqFullEvents                     3550                       # Number of times the IQ has become full, causing a stall (Count)
system.cpu0.iew.lsqFullEvents                   27752                       # Number of times the LSQ has become full, causing a stall (Count)
system.cpu0.iew.memOrderViolationEvents           294                       # Number of memory order violations (Count)
system.cpu0.iew.predictedTakenIncorrect         15274                       # Number of branches that were predicted taken incorrectly (Count)
system.cpu0.iew.predictedNotTakenIncorrect        12003                       # Number of branches that were predicted not taken incorrectly (Count)
system.cpu0.iew.branchMispredicts               27277                       # Number of branch mispredicts detected at execute (Count)
system.cpu0.iew.instsToCommit                60404836                       # Cumulative count of insts sent to commit (Count)
system.cpu0.iew.writebackCount               60395294                       # Cumulative count of insts written-back (Count)
system.cpu0.iew.producerInst                 43695791                       # Number of instructions producing a value (Count)
system.cpu0.iew.consumerInst                 75232551                       # Number of instructions consuming a value (Count)
system.cpu0.iew.wbRate                       2.508996                       # Insts written-back per cycle ((Count/Cycle))
system.cpu0.iew.wbFanout                     0.580810                       # Average fanout of values written-back ((Count/Count))
system.cpu0.interrupts.clk_domain.clock          5328                       # Clock period in ticks (Tick)
system.cpu0.itb_walker_cache.blockedCycles::no_mshrs            0                       # number of cycles access was blocked (Cycle)
system.cpu0.itb_walker_cache.blockedCycles::no_targets            0                       # number of cycles access was blocked (Cycle)
system.cpu0.itb_walker_cache.blockedCauses::no_mshrs            0                       # number of times access was blocked (Count)
system.cpu0.itb_walker_cache.blockedCauses::no_targets            0                       # number of times access was blocked (Count)
system.cpu0.itb_walker_cache.avgBlocked::no_mshrs          nan                       # average number of cycles each access was blocked ((Cycle/Count))
system.cpu0.itb_walker_cache.avgBlocked::no_targets          nan                       # average number of cycles each access was blocked ((Cycle/Count))
system.cpu0.itb_walker_cache.replacements            0                       # number of replacements (Count)
system.cpu0.itb_walker_cache.power_state.pwrStateResidencyTicks::UNDEFINED   8078232015                       # Cumulative time (in ticks) in various power states (Tick)
[...]
system.mem_ctrls.dram.perBankWrBursts::9            0                       # Per bank write bursts (Count)
system.mem_ctrls.dram.perBankWrBursts::10            0                       # Per bank write bursts (Count)
system.mem_ctrls.dram.perBankWrBursts::11            0                       # Per bank write bursts (Count)
system.mem_ctrls.dram.perBankWrBursts::12            0                       # Per bank write bursts (Count)
system.mem_ctrls.dram.perBankWrBursts::13            0                       # Per bank write bursts (Count)
system.mem_ctrls.dram.perBankWrBursts::14            0                       # Per bank write bursts (Count)
system.mem_ctrls.dram.perBankWrBursts::15            0                       # Per bank write bursts (Count)
system.mem_ctrls.dram.totQLat               682554482                       # Total ticks spent queuing (Tick)
system.mem_ctrls.dram.totBusLat             274805000                       # Total ticks spent in databus transfers (Tick)
system.mem_ctrls.dram.totMemAccLat         1713073232                       # Total ticks spent from burst creation until serviced by the DRAM (Tick)
system.mem_ctrls.dram.avgQLat                12418.89                       # Average queueing delay per DRAM burst ((Tick/Count))
system.mem_ctrls.dram.avgBusLat               5000.00                       # Average bus latency per DRAM burst ((Tick/Count))
system.mem_ctrls.dram.avgMemAccLat           31168.89                       # Average memory access latency per DRAM burst ((Tick/Count))
system.mem_ctrls.dram.readRowHits               38737                       # Number of row buffer hits during reads (Count)
system.mem_ctrls.dram.writeRowHits                  0                       # Number of row buffer hits during writes (Count)
system.mem_ctrls.dram.readRowHitRate            70.48                       # Row buffer hit rate for reads (Ratio)
system.mem_ctrls.dram.writeRowHitRate             nan                       # Row buffer hit rate for writes (Ratio)
system.mem_ctrls.dram.bytesPerActivate::samples        16216                       # Bytes accessed per row activation (Byte)
system.mem_ctrls.dram.bytesPerActivate::mean   216.793291                       # Bytes accessed per row activation (Byte)
system.mem_ctrls.dram.bytesPerActivate::gmean   118.363220                       # Bytes accessed per row activation (Byte)
system.mem_ctrls.dram.bytesPerActivate::stdev   312.061839                       # Bytes accessed per row activation (Byte)
system.mem_ctrls.dram.bytesPerActivate::0-127         9272     57.18%     57.18% # Bytes accessed per row activation (Byte)
system.mem_ctrls.dram.bytesPerActivate::128-255         4101     25.29%     82.47% # Bytes accessed per row activation (Byte)
system.mem_ctrls.dram.bytesPerActivate::256-383          346      2.13%     84.60% # Bytes accessed per row activation (Byte)
system.mem_ctrls.dram.bytesPerActivate::384-511          212      1.31%     85.91% # Bytes accessed per row activation (Byte)
system.mem_ctrls.dram.bytesPerActivate::512-639          145      0.89%     86.80% # Bytes accessed per row activation (Byte)
system.mem_ctrls.dram.bytesPerActivate::640-767          117      0.72%     87.52% # Bytes accessed per row activation (Byte)
system.mem_ctrls.dram.bytesPerActivate::768-895           76      0.47%     87.99% # Bytes accessed per row activation (Byte)
system.mem_ctrls.dram.bytesPerActivate::896-1023           96      0.59%     88.59% # Bytes accessed per row activation (Byte)
system.mem_ctrls.dram.bytesPerActivate::1024-1151         1851     11.41%    100.00% # Bytes accessed per row activation (Byte)
system.mem_ctrls.dram.bytesPerActivate::total        16216                       # Bytes accessed per row activation (Byte)
system.mem_ctrls.dram.bytesRead               3517504                       # Total bytes read (Byte)
system.mem_ctrls.dram.bytesWritten                  0                       # Total bytes written (Byte)
system.mem_ctrls.dram.avgRdBW              435.429930                       # Average DRAM read bandwidth in MiBytes/s ((Byte/Second))
system.mem_ctrls.dram.avgWrBW                       0                       # Average DRAM write bandwidth in MiBytes/s ((Byte/Second))
system.mem_ctrls.dram.peakBW                 12800.00                       # Theoretical peak bandwidth in MiByte/s ((Byte/Second))
system.mem_ctrls.dram.busUtil                    3.40                       # Data bus utilization in percentage (Ratio)
system.mem_ctrls.dram.busUtilRead                3.40                       # Data bus utilization in percentage for reads (Ratio)
system.mem_ctrls.dram.busUtilWrite               0.00                       # Data bus utilization in percentage for writes (Ratio)
system.mem_ctrls.dram.pageHitRate               70.48                       # Row buffer hit rate, read and write combined (Ratio)
system.mem_ctrls.dram.power_state.pwrStateResidencyTicks::UNDEFINED   8078232015                       # Cumulative time (in ticks) in various power states (Tick)
system.mem_ctrls.dram.rank0.actEnergy        57269940                       # Energy for activate commands per rank (pJ) (Joule)
system.mem_ctrls.dram.rank0.preEnergy        30416925                       # Energy for precharge commands per rank (pJ) (Joule)
system.mem_ctrls.dram.rank0.readEnergy      195471780                       # Energy for read commands per rank (pJ) (Joule)
system.mem_ctrls.dram.rank0.writeEnergy             0                       # Energy for write commands per rank (pJ) (Joule)
system.mem_ctrls.dram.rank0.refreshEnergy 637381680.000000                       # Energy for refresh commands per rank (pJ) (Joule)
system.mem_ctrls.dram.rank0.actBackEnergy   1707706320                       # Energy for active background per rank (pJ) (Joule)
system.mem_ctrls.dram.rank0.preBackEnergy   1663972800                       # Energy for precharge background per rank (pJ) (Joule)
system.mem_ctrls.dram.rank0.actPowerDownEnergy            0                       # Energy for active power-down per rank (pJ) (Joule)
system.mem_ctrls.dram.rank0.prePowerDownEnergy            0                       # Energy for precharge power-down per rank (pJ) (Joule)
system.mem_ctrls.dram.rank0.selfRefreshEnergy            0                       # Energy for self refresh per rank (pJ) (Joule)
system.mem_ctrls.dram.rank0.totalEnergy    4292219445                       # Total energy per rank (pJ) (Joule)
system.mem_ctrls.dram.rank0.averagePower   531.331539                       # Core power per rank (mW) (Watt)
system.mem_ctrls.dram.rank0.totalIdleTime            0                       # Total Idle time Per DRAM Rank (Tick)
system.mem_ctrls.dram.rank0.pwrStateTime::IDLE   4302444881                       # Time in different power states (Tick)
system.mem_ctrls.dram.rank0.pwrStateTime::REF    269620000                       # Time in different power states (Tick)
system.mem_ctrls.dram.rank0.pwrStateTime::SREF            0                       # Time in different power states (Tick)
system.mem_ctrls.dram.rank0.pwrStateTime::PRE_PDN            0                       # Time in different power states (Tick)
system.mem_ctrls.dram.rank0.pwrStateTime::ACT   3506167134                       # Time in different power states (Tick)
system.mem_ctrls.dram.rank0.pwrStateTime::ACT_PDN            0                       # Time in different power states (Tick)
system.mem_ctrls.dram.rank1.actEnergy        58569420                       # Energy for activate commands per rank (pJ) (Joule)
system.mem_ctrls.dram.rank1.preEnergy        31122795                       # Energy for precharge commands per rank (pJ) (Joule)
system.mem_ctrls.dram.rank1.readEnergy      196949760                       # Energy for read commands per rank (pJ) (Joule)
system.mem_ctrls.dram.rank1.writeEnergy             0                       # Energy for write commands per rank (pJ) (Joule)
system.mem_ctrls.dram.rank1.refreshEnergy 637381680.000000                       # Energy for refresh commands per rank (pJ) (Joule)
system.mem_ctrls.dram.rank1.actBackEnergy   1701139920                       # Energy for active background per rank (pJ) (Joule)
system.mem_ctrls.dram.rank1.preBackEnergy   1669502400                       # Energy for precharge background per rank (pJ) (Joule)
system.mem_ctrls.dram.rank1.actPowerDownEnergy            0                       # Energy for active power-down per rank (pJ) (Joule)
system.mem_ctrls.dram.rank1.prePowerDownEnergy            0                       # Energy for precharge power-down per rank (pJ) (Joule)
system.mem_ctrls.dram.rank1.selfRefreshEnergy            0                       # Energy for self refresh per rank (pJ) (Joule)
system.mem_ctrls.dram.rank1.totalEnergy    4294665975                       # Total energy per rank (pJ) (Joule)
system.mem_ctrls.dram.rank1.averagePower   531.634393                       # Core power per rank (mW) (Watt)
system.mem_ctrls.dram.rank1.totalIdleTime            0                       # Total Idle time Per DRAM Rank (Tick)
system.mem_ctrls.dram.rank1.pwrStateTime::IDLE   4316701848                       # Time in different power states (Tick)
system.mem_ctrls.dram.rank1.pwrStateTime::REF    269620000                       # Time in different power states (Tick)
system.mem_ctrls.dram.rank1.pwrStateTime::SREF            0                       # Time in different power states (Tick)
system.mem_ctrls.dram.rank1.pwrStateTime::PRE_PDN            0                       # Time in different power states (Tick)
system.mem_ctrls.dram.rank1.pwrStateTime::ACT   3491910167                       # Time in different power states (Tick)
system.mem_ctrls.dram.rank1.pwrStateTime::ACT_PDN            0                       # Time in different power states (Tick)
system.mem_ctrls.power_state.pwrStateResidencyTicks::UNDEFINED   8078232015                       # Cumulative time (in ticks) in various power states (Tick)
system.membus.transDist::ReadResp                4470                       # Transaction distribution (Count)
system.membus.transDist::UpgradeReq               281                       # Transaction distribution (Count)
system.membus.transDist::ReadExReq              50517                       # Transaction distribution (Count)
system.membus.transDist::ReadExResp             50491                       # Transaction distribution (Count)
system.membus.transDist::ReadSharedReq           4470                       # Transaction distribution (Count)
system.membus.pktCount_system.l3.mem_side_port::system.mem_ctrls.port       110229                       # Packet count per connected requestor and responder (Count)
system.membus.pktCount_system.l3.mem_side_port::total       110229                       # Packet count per connected requestor and responder (Count)
system.membus.pktCount::total                  110229                       # Packet count per connected requestor and responder (Count)
system.membus.pktSize_system.l3.mem_side_port::system.mem_ctrls.port      3517504                       # Cumulative packet size per connected requestor and responder (Byte)
system.membus.pktSize_system.l3.mem_side_port::total      3517504                       # Cumulative packet size per connected requestor and responder (Byte)
system.membus.pktSize::total                  3517504                       # Cumulative packet size per connected requestor and responder (Byte)
system.membus.snoops                              307                       # Total snoops (Count)
system.membus.snoopTraffic                          0                       # Total snoop traffic (Byte)
system.membus.snoopFanout::samples              55268                       # Request fanout histogram (Count)
system.membus.snoopFanout::mean                     0                       # Request fanout histogram (Count)
system.membus.snoopFanout::stdev                    0                       # Request fanout histogram (Count)
system.membus.snoopFanout::underflows               0      0.00%      0.00% # Request fanout histogram (Count)
system.membus.snoopFanout::0                    55268    100.00%    100.00% # Request fanout histogram (Count)
system.membus.snoopFanout::1                        0      0.00%    100.00% # Request fanout histogram (Count)
system.membus.snoopFanout::overflows                0      0.00%    100.00% # Request fanout histogram (Count)
system.membus.snoopFanout::min_value                0                       # Request fanout histogram (Count)
system.membus.snoopFanout::max_value                0                       # Request fanout histogram (Count)
system.membus.snoopFanout::total                55268                       # Request fanout histogram (Count)
system.membus.power_state.pwrStateResidencyTicks::UNDEFINED   8078232015                       # Cumulative time (in ticks) in various power states (Tick)
system.membus.reqLayer4.occupancy            74483301                       # Layer occupancy (ticks) (Tick)
system.membus.reqLayer4.utilization               0.0                       # Layer utilization (Ratio)
system.membus.respLayer1.occupancy          294473900                       # Layer occupancy (ticks) (Tick)
system.membus.respLayer1.utilization              0.0                       # Layer utilization (Ratio)
system.membus.snoop_filter.totRequests          55268                       # Total number of requests made to the snoop filter. (Count)
system.membus.snoop_filter.hitSingleRequests          307                       # Number of requests hitting in the snoop filter with a single holder of the requested data. (Count)
system.membus.snoop_filter.hitMultiRequests            0                       # Number of requests hitting in the snoop filter with multiple (>1) holders of the requested data. (Count)
system.membus.snoop_filter.totSnoops                0                       # Total number of snoops made to the snoop filter. (Count)
system.membus.snoop_filter.hitSingleSnoops            0                       # Number of snoops hitting in the snoop filter with a single holder of the requested data. (Count)
system.membus.snoop_filter.hitMultiSnoops            0                       # Number of snoops hitting in the snoop filter with multiple (>1) holders of the requested data. (Count)
system.tol3bus.transDist::ReadResp              46046                       # Transaction distribution (Count)
system.tol3bus.transDist::WritebackDirty        24625                       # Transaction distribution (Count)
system.tol3bus.transDist::CleanEvict             6896                       # Transaction distribution (Count)
system.tol3bus.transDist::UpgradeReq            10666                       # Transaction distribution (Count)
system.tol3bus.transDist::UpgradeResp           10666                       # Transaction distribution (Count)
system.tol3bus.transDist::ReadExReq             59473                       # Transaction distribution (Count)
system.tol3bus.transDist::ReadExResp            59473                       # Transaction distribution (Count)
system.tol3bus.transDist::ReadSharedReq         46046                       # Transaction distribution (Count)
system.tol3bus.pktCount_system.cpu0.l2cache.mem_side_port::system.l3.cpu_side_port       159099                       # Packet count per connected requestor and responder (Count)
system.tol3bus.pktCount_system.cpu1.l2cache.mem_side_port::system.l3.cpu_side_port        71832                       # Packet count per connected requestor and responder (Count)
system.tol3bus.pktCount::total                 230931                       # Packet count per connected requestor and responder (Count)
system.tol3bus.pktSize_system.cpu0.l2cache.mem_side_port::system.l3.cpu_side_port      5139520                       # Cumulative packet size per connected requestor and responder (Byte)
system.tol3bus.pktSize_system.cpu1.l2cache.mem_side_port::system.l3.cpu_side_port      1098240                       # Cumulative packet size per connected requestor and responder (Byte)
system.tol3bus.pktSize::total                 6237760                       # Cumulative packet size per connected requestor and responder (Byte)
system.tol3bus.snoops                           32960                       # Total snoops (Count)
system.tol3bus.snoopTraffic                   2091456                       # Total snoop traffic (Byte)
system.tol3bus.snoopFanout::samples            116185                       # Request fanout histogram (Count)
system.tol3bus.snoopFanout::mean             0.371933                       # Request fanout histogram (Count)
system.tol3bus.snoopFanout::stdev            0.483323                       # Request fanout histogram (Count)
system.tol3bus.snoopFanout::underflows              0      0.00%      0.00% # Request fanout histogram (Count)
system.tol3bus.snoopFanout::0                   72972     62.81%     62.81% # Request fanout histogram (Count)
system.tol3bus.snoopFanout::1                   43213     37.19%    100.00% # Request fanout histogram (Count)
system.tol3bus.snoopFanout::2                       0      0.00%    100.00% # Request fanout histogram (Count)
system.tol3bus.snoopFanout::overflows               0      0.00%    100.00% # Request fanout histogram (Count)
system.tol3bus.snoopFanout::min_value               0                       # Request fanout histogram (Count)
system.tol3bus.snoopFanout::max_value               1                       # Request fanout histogram (Count)
system.tol3bus.snoopFanout::total              116185                       # Request fanout histogram (Count)
system.tol3bus.power_state.pwrStateResidencyTicks::UNDEFINED   8078232015                       # Cumulative time (in ticks) in various power states (Tick)
system.tol3bus.reqLayer0.occupancy           65586348                       # Layer occupancy (ticks) (Tick)
system.tol3bus.reqLayer0.utilization              0.0                       # Layer utilization (Ratio)
system.tol3bus.respLayer0.occupancy          67918668                       # Layer occupancy (ticks) (Tick)
system.tol3bus.respLayer0.utilization             0.0                       # Layer utilization (Ratio)
system.tol3bus.respLayer1.occupancy          41051571                       # Layer occupancy (ticks) (Tick)
system.tol3bus.respLayer1.utilization             0.0                       # Layer utilization (Ratio)
system.tol3bus.snoop_filter.totRequests        147706                       # Total number of requests made to the snoop filter. (Count)
system.tol3bus.snoop_filter.hitSingleRequests        58540                       # Number of requests hitting in the snoop filter with a single holder of the requested data. (Count)
system.tol3bus.snoop_filter.hitMultiRequests        18546                       # Number of requests hitting in the snoop filter with multiple (>1) holders of the requested data. (Count)
system.tol3bus.snoop_filter.totSnoops               0                       # Total number of snoops made to the snoop filter. (Count)
system.tol3bus.snoop_filter.hitSingleSnoops            0                       # Number of snoops hitting in the snoop filter with a single holder of the requested data. (Count)
system.tol3bus.snoop_filter.hitMultiSnoops            0                       # Number of snoops hitting in the snoop filter with multiple (>1) holders of the requested data. (Count)
system.voltage_domain.voltage                       1                       # Voltage in Volts (Volt)
system.workload.inst.arm                            0                       # number of arm instructions executed (Count)
system.workload.inst.quiesce                        0                       # number of quiesce instructions executed (Count)

---------- End Simulation Statistics   ----------
