
---------- Begin Simulation Statistics ----------
simSeconds                                   0.077301                       # Number of seconds simulated (Second)
simTicks                                  77300916039                       # Number of ticks simulated (Tick)
finalTick                                 77300916039                       # Number of ticks from beginning of simulation (restored from checkpoints and never reset) (Tick)
simFreq                                  1000000000000                       # The number of ticks per simulated second ((Tick/Second))
hostSeconds                                    470.32                       # Real time elapsed on the host (Second)
hostTickRate                                164357052                       # The number of ticks simulated per host second (ticks/s) ((Tick/Second))
hostMemory                                     748780                       # Number of bytes of host memory used (Byte)
simInsts                                    249880347                       # Number of instructions simulated (Count)
simOps                                      249880561                       # Number of ops (including micro ops) simulated (Count)
hostInstRate                                   531295                       # Simulator instruction rate (inst/s) ((Count/Second))
hostOpRate                                     531295                       # Simulator op (including micro ops) rate (op/s) ((Count/Second))
system.clk_domain.clock                          1000                       # Clock period in ticks (Tick)
system.cpu0.numCycles                       231831189                       # Number of cpu cycles simulated (Cycle)
system.cpu0.numWorkItemsStarted                     0                       # Number of work items this cpu started (Count)
system.cpu0.numWorkItemsCompleted                   0                       # Number of work items this cpu completed (Count)
system.cpu0.instsAdded                      125191496                       # Number of instructions added to the IQ (excludes non-spec) (Count)
system.cpu0.nonSpecInstsAdded                     943                       # Number of non-speculative instructions added to the IQ (Count)
system.cpu0.instsIssued                     127675451                       # Number of instructions issued (Count)
system.cpu0.squashedInstsIssued                   239                       # Number of squashed instructions issued (Count)
system.cpu0.squashedInstsExamined              257218                       # Number of squashed instructions iterated over during squash; mainly for profiling (Count)
system.cpu0.squashedOperandsExamined           137805                       # Number of squashed operands that are examined and possibly removed from graph (Count)
system.cpu0.squashedNonSpecRemoved                292                       # Number of squashed non-spec instructions that were removed (Count)
system.cpu0.numIssuedDist::samples          231735982                       # Number of insts issued each cycle (Count)
system.cpu0.numIssuedDist::mean              0.550952                       # Number of insts issued each cycle (Count)
system.cpu0.numIssuedDist::stdev             0.975340                       # Number of insts issued each cycle (Count)
system.cpu0.numIssuedDist::underflows               0      0.00%      0.00% # Number of insts issued each cycle (Count)
system.cpu0.numIssuedDist::0                150610917     64.99%     64.99% # Number of insts issued each cycle (Count)
system.cpu0.numIssuedDist::1                 51936710     22.41%     87.40% # Number of insts issued each cycle (Count)
system.cpu0.numIssuedDist::2                 20652389      8.91%     96.32% # Number of insts issued each cycle (Count)
system.cpu0.numIssuedDist::3                  4745574      2.05%     98.36% # Number of insts issued each cycle (Count)
system.cpu0.numIssuedDist::4                  1257631      0.54%     98.91% # Number of insts issued each cycle (Count)
system.cpu0.numIssuedDist::5                   964994      0.42%     99.32% # Number of insts issued each cycle (Count)
system.cpu0.numIssuedDist::6                   978003      0.42%     99.75% # Number of insts issued each cycle (Count)
system.cpu0.numIssuedDist::7                   244383      0.11%     99.85% # Number of insts issued each cycle (Count)
system.cpu0.numIssuedDist::8                   345381      0.15%    100.00% # Number of insts issued each cycle (Count)
system.cpu0.numIssuedDist::overflows                0      0.00%    100.00% # Number of insts issued each cycle (Count)
system.cpu0.numIssuedDist::min_value                0                       # Number of insts issued each cycle (Count)
system.cpu0.numIssuedDist::max_value                8                       # Number of insts issued each cycle (Count)
system.cpu0.numIssuedDist::total            231735982                       # Number of insts issued each cycle (Count)
system.cpu0.statFuBusy::No_OpClass                  0      0.00%      0.00% # attempts to use FU when none available (Count)
system.cpu0.statFuBusy::IntAlu                 775147     68.64%     68.64% # attempts to use FU when none available (Count)
system.cpu0.statFuBusy::IntMult                     6      0.00%     68.64% # attempts to use FU when none available (Count)
system.cpu0.statFuBusy::IntDiv                      4      0.00%     68.64% # attempts to use FU when none available (Count)
system.cpu0.statFuBusy::FloatAdd                    0      0.00%     68.64% # attempts to use FU when none available (Count)
system.cpu0.statFuBusy::FloatCmp                    0      0.00%     68.64% # attempts to use FU when none available (Count)
system.cpu0.statFuBusy::FloatCvt                    0      0.00%     68.64% # attempts to use FU when none available (Count)
system.cpu0.statFuBusy::FloatMult                1027      0.09%     68.73% # attempts to use FU when none available (Count)
system.cpu0.statFuBusy::FloatMultAcc                0      0.00%     68.73% # attempts to use FU when none available (Count)
system.cpu0.statFuBusy::FloatDiv                    0      0.00%     68.73% # attempts to use FU when none available (Count)
system.cpu0.statFuBusy::FloatMisc                  15      0.00%     68.74% # attempts to use FU when none available (Count)
system.cpu0.statFuBusy::FloatSqrt                   0      0.00%     68.74% # attempts to use FU when none available (Count)
system.cpu0.statFuBusy::SimdAdd                     0      0.00%     68.74% # attempts to use FU when none available (Count)
system.cpu0.statFuBusy::SimdAddAcc                  0      0.00%     68.74% # attempts to use FU when none available (Count)
system.cpu0.statFuBusy::SimdAlu                     0      0.00%     68.74% # attempts to use FU when none available (Count)
system.cpu0.statFuBusy::SimdCmp                     0      0.00%     68.74% # attempts to use FU when none available (Count)
system.cpu0.statFuBusy::SimdCvt                     0      0.00%     68.74% # attempts to use FU when none available (Count)
system.cpu0.statFuBusy::SimdMisc                    0      0.00%     68.74% # attempts to use FU when none available (Count)
system.cpu0.statFuBusy::SimdMult                    0      0.00%     68.74% # attempts to use FU when none available (Count)
system.cpu0.statFuBusy::SimdMultAcc                 0      0.00%     68.74% # attempts to use FU when none available (Count)
system.cpu0.statFuBusy::SimdShift                   0      0.00%     68.74% # attempts to use FU when none available (Count)
system.cpu0.statFuBusy::SimdShiftAcc                0      0.00%     68.74% # attempts to use FU when none available (Count)
system.cpu0.statFuBusy::SimdDiv                     0      0.00%     68.74% # attempts to use FU when none available (Count)
system.cpu0.statFuBusy::SimdSqrt                    0      0.00%     68.74% # attempts to use FU when none available (Count)
system.cpu0.statFuBusy::SimdFloatAdd                0      0.00%     68.74% # attempts to use FU when none available (Count)
system.cpu0.statFuBusy::SimdFloatAlu                0      0.00%     68.74% # attempts to use FU when none available (Count)
system.cpu0.statFuBusy::SimdFloatCmp                0      0.00%     68.74% # attempts to use FU when none available (Count)
system.cpu0.statFuBusy::SimdFloatCvt                0      0.00%     68.74% # attempts to use FU when none available (Count)
system.cpu0.statFuBusy::SimdFloatDiv                0      0.00%     68.74% # attempts to use FU when none available (Count)
system.cpu0.statFuBusy::SimdFloatMisc               0      0.00%     68.74% # attempts to use FU when none available (Count)
system.cpu0.statFuBusy::SimdFloatMult               0      0.00%     68.74% # attempts to use FU when none available (Count)
system.cpu0.statFuBusy::SimdFloatMultAcc            0      0.00%     68.74% # attempts to use FU when none available (Count)
system.cpu0.statFuBusy::SimdFloatSqrt               0      0.00%     68.74% # attempts to use FU when none available (Count)
system.cpu0.statFuBusy::SimdReduceAdd               0      0.00%     68.74% # attempts to use FU when none available (Count)
system.cpu0.statFuBusy::SimdReduceAlu               0      0.00%     68.74% # attempts to use FU when none available (Count)
system.cpu0.statFuBusy::SimdReduceCmp               0      0.00%     68.74% # attempts to use FU when none available (Count)
system.cpu0.statFuBusy::SimdFloatReduceAdd            0      0.00%     68.74% # attempts to use FU when none available (Count)
system.cpu0.statFuBusy::SimdFloatReduceCmp            0      0.00%     68.74% # attempts to use FU when none available (Count)
system.cpu0.statFuBusy::SimdAes                     0      0.00%     68.74% # attempts to use FU when none available (Count)
system.cpu0.statFuBusy::SimdAesMix                  0      0.00%     68.74% # attempts to use FU when none available (Count)
system.cpu0.statFuBusy::SimdSha1Hash                0      0.00%     68.74% # attempts to use FU when none available (Count)
system.cpu0.statFuBusy::SimdSha1Hash2               0      0.00%     68.74% # attempts to use FU when none available (Count)
system.cpu0.statFuBusy::SimdSha256Hash              0      0.00%     68.74% # attempts to use FU when none available (Count)
system.cpu0.statFuBusy::SimdSha256Hash2             0      0.00%     68.74% # attempts to use FU when none available (Count)
system.cpu0.statFuBusy::SimdShaSigma2               0      0.00%     68.74% # attempts to use FU when none available (Count)
system.cpu0.statFuBusy::SimdShaSigma3               0      0.00%     68.74% # attempts to use FU when none available (Count)
system.cpu0.statFuBusy::SimdPredAlu                 0      0.00%     68.74% # attempts to use FU when none available (Count)
system.cpu0.statFuBusy::MemRead                351607     31.14%     99.87% # attempts to use FU when none available (Count)
system.cpu0.statFuBusy::MemWrite                 1436      0.13%    100.00% # attempts to use FU when none available (Count)
system.cpu0.statFuBusy::FloatMemRead                4      0.00%    100.00% # attempts to use FU when none available (Count)
system.cpu0.statFuBusy::FloatMemWrite               9      0.00%    100.00% # attempts to use FU when none available (Count)
system.cpu0.statFuBusy::IprAccess                   0      0.00%    100.00% # attempts to use FU when none available (Count)
system.cpu0.statFuBusy::InstPrefetch                0      0.00%    100.00% # attempts to use FU when none available (Count)
system.cpu0.statIssuedInstType_0::No_OpClass          398      0.00%      0.00% # Number of instructions issued per FU type, per thread (Count)
system.cpu0.statIssuedInstType_0::IntAlu     34778763     27.24%     27.24% # Number of instructions issued per FU type, per thread (Count)
system.cpu0.statIssuedInstType_0::IntMult           72      0.00%     27.24% # Number of instructions issued per FU type, per thread (Count)
system.cpu0.statIssuedInstType_0::IntDiv          142      0.00%     27.24% # Number of instructions issued per FU type, per thread (Count)
system.cpu0.statIssuedInstType_0::FloatAdd     14161932     11.09%     38.33% # Number of instructions issued per FU type, per thread (Count)
system.cpu0.statIssuedInstType_0::FloatCmp           16      0.00%     38.33% # Number of instructions issued per FU type, per thread (Count)
system.cpu0.statIssuedInstType_0::FloatCvt     17838103     13.97%     52.30% # Number of instructions issued per FU type, per thread (Count)
system.cpu0.statIssuedInstType_0::FloatMult     28325899     22.19%     74.49% # Number of instructions issued per FU type, per thread (Count)
system.cpu0.statIssuedInstType_0::FloatMultAcc            0      0.00%     74.49% # Number of instructions issued per FU type, per thread (Count)
system.cpu0.statIssuedInstType_0::FloatDiv            0      0.00%     74.49% # Number of instructions issued per FU type, per thread (Count)
system.cpu0.statIssuedInstType_0::FloatMisc      3148824      2.47%     76.96% # Number of instructions issued per FU type, per thread (Count)
system.cpu0.statIssuedInstType_0::FloatSqrt            0      0.00%     76.96% # Number of instructions issued per FU type, per thread (Count)
system.cpu0.statIssuedInstType_0::SimdAdd            0      0.00%     76.96% # Number of instructions issued per FU type, per thread (Count)
system.cpu0.statIssuedInstType_0::SimdAddAcc            0      0.00%     76.96% # Number of instructions issued per FU type, per thread (Count)
system.cpu0.statIssuedInstType_0::SimdAlu            0      0.00%     76.96% # Number of instructions issued per FU type, per thread (Count)
system.cpu0.statIssuedInstType_0::SimdCmp            0      0.00%     76.96% # Number of instructions issued per FU type, per thread (Count)
system.cpu0.statIssuedInstType_0::SimdCvt            0      0.00%     76.96% # Number of instructions issued per FU type, per thread (Count)
system.cpu0.statIssuedInstType_0::SimdMisc            0      0.00%     76.96% # Number of instructions issued per FU type, per thread (Count)
system.cpu0.statIssuedInstType_0::SimdMult            0      0.00%     76.96% # Number of instructions issued per FU type, per thread (Count)
system.cpu0.statIssuedInstType_0::SimdMultAcc            0      0.00%     76.96% # Number of instructions issued per FU type, per thread (Count)
system.cpu0.statIssuedInstType_0::SimdShift            0      0.00%     76.96% # Number of instructions issued per FU type, per thread (Count)
system.cpu0.statIssuedInstType_0::SimdShiftAcc            0      0.00%     76.96% # Number of instructions issued per FU type, per thread (Count)
system.cpu0.statIssuedInstType_0::SimdDiv            0      0.00%     76.96% # Number of instructions issued per FU type, per thread (Count)
system.cpu0.statIssuedInstType_0::SimdSqrt            0      0.00%     76.96% # Number of instructions issued per FU type, per thread (Count)
system.cpu0.statIssuedInstType_0::SimdFloatAdd            0      0.00%     76.96% # Number of instructions issued per FU type, per thread (Count)
system.cpu0.statIssuedInstType_0::SimdFloatAlu            0      0.00%     76.96% # Number of instructions issued per FU type, per thread (Count)
system.cpu0.statIssuedInstType_0::SimdFloatCmp            0      0.00%     76.96% # Number of instructions issued per FU type, per thread (Count)
system.cpu0.statIssuedInstType_0::SimdFloatCvt            0      0.00%     76.96% # Number of instructions issued per FU type, per thread (Count)
system.cpu0.statIssuedInstType_0::SimdFloatDiv            0      0.00%     76.96% # Number of instructions issued per FU type, per thread (Count)
system.cpu0.statIssuedInstType_0::SimdFloatMisc            0      0.00%     76.96% # Number of instructions issued per FU type, per thread (Count)
system.cpu0.statIssuedInstType_0::SimdFloatMult            0      0.00%     76.96% # Number of instructions issued per FU type, per thread (Count)
system.cpu0.statIssuedInstType_0::SimdFloatMultAcc            0      0.00%     76.96% # Number of instructions issued per FU type, per thread (Count)
system.cpu0.statIssuedInstType_0::SimdFloatSqrt            0      0.00%     76.96% # Number of instructions issued per FU type, per thread (Count)
system.cpu0.statIssuedInstType_0::SimdReduceAdd            0      0.00%     76.96% # Number of instructions issued per FU type, per thread (Count)
system.cpu0.statIssuedInstType_0::SimdReduceAlu            0      0.00%     76.96% # Number of instructions issued per FU type, per thread (Count)
system.cpu0.statIssuedInstType_0::SimdReduceCmp            0      0.00%     76.96% # Number of instructions issued per FU type, per thread (Count)
system.cpu0.statIssuedInstType_0::SimdFloatReduceAdd            0      0.00%     76.96% # Number of instructions issued per FU type, per thread (Count)
system.cpu0.statIssuedInstType_0::SimdFloatReduceCmp            0      0.00%     76.96% # Number of instructions issued per FU type, per thread (Count)
system.cpu0.statIssuedInstType_0::SimdAes            0      0.00%     76.96% # Number of instructions issued per FU type, per thread (Count)
system.cpu0.statIssuedInstType_0::SimdAesMix            0      0.00%     76.96% # Number of instructions issued per FU type, per thread (Count)
system.cpu0.statIssuedInstType_0::SimdSha1Hash            0      0.00%     76.96% # Number of instructions issued per FU type, per thread (Count)
system.cpu0.statIssuedInstType_0::SimdSha1Hash2            0      0.00%     76.96% # Number of instructions issued per FU type, per thread (Count)
system.cpu0.statIssuedInstType_0::SimdSha256Hash            0      0.00%     76.96% # Number of instructions issued per FU type, per thread (Count)
system.cpu0.statIssuedInstType_0::SimdSha256Hash2            0      0.00%     76.96% # Number of instructions issued per FU type, per thread (Count)
system.cpu0.statIssuedInstType_0::SimdShaSigma2            0      0.00%     76.96% # Number of instructions issued per FU type, per thread (Count)
system.cpu0.statIssuedInstType_0::SimdShaSigma3            0      0.00%     76.96% # Number of instructions issued per FU type, per thread (Count)
system.cpu0.statIssuedInstType_0::SimdPredAlu            0      0.00%     76.96% # Number of instructions issued per FU type, per thread (Count)
system.cpu0.statIssuedInstType_0::MemRead     15733122     12.32%     89.28% # Number of instructions issued per FU type, per thread (Count)
system.cpu0.statIssuedInstType_0::MemWrite      5285172      4.14%     93.42% # Number of instructions issued per FU type, per thread (Count)
system.cpu0.statIssuedInstType_0::FloatMemRead      8402973      6.58%    100.00% # Number of instructions issued per FU type, per thread (Count)
system.cpu0.statIssuedInstType_0::FloatMemWrite           35      0.00%    100.00% # Number of instructions issued per FU type, per thread (Count)
system.cpu0.statIssuedInstType_0::IprAccess            0      0.00%    100.00% # Number of instructions issued per FU type, per thread (Count)
system.cpu0.statIssuedInstType_0::InstPrefetch            0      0.00%    100.00% # Number of instructions issued per FU type, per thread (Count)
system.cpu0.statIssuedInstType_0::total     127675451                       # Number of instructions issued per FU type, per thread (Count)
system.cpu0.issueRate                        0.550726                       # Inst issue rate ((Count/Cycle))
system.cpu0.fuBusy                            1129255                       # FU busy when requested (Count)
system.cpu0.fuBusyRate                       0.008845                       # FU busy rate (busy events/executed inst) ((Count/Count))
system.cpu0.intInstQueueReads               344459759                       # Number of integer instruction queue reads (Count)
system.cpu0.intInstQueueWrites               53396986                       # Number of integer instruction queue writes (Count)
system.cpu0.intInstQueueWakeupAccesses       53232102                       # Number of integer instruction queue wakeup accesses (Count)
system.cpu0.fpInstQueueReads                143756619                       # Number of floating instruction queue reads (Count)
system.cpu0.fpInstQueueWrites                72052774                       # Number of floating instruction queue writes (Count)
system.cpu0.fpInstQueueWakeupAccesses        71876748                       # Number of floating instruction queue wakeup accesses (Count)
system.cpu0.vecInstQueueReads                       0                       # Number of vector instruction queue reads (Count)
system.cpu0.vecInstQueueWrites                      0                       # Number of vector instruction queue writes (Count)
system.cpu0.vecInstQueueWakeupAccesses              0                       # Number of vector instruction queue wakeup accesses (Count)
system.cpu0.intAluAccesses                   56925471                       # Number of integer alu accesses (Count)
system.cpu0.fpAluAccesses                    71878837                       # Number of floating point alu accesses (Count)
system.cpu0.vecAluAccesses                          0                       # Number of vector alu accesses (Count)
system.cpu0.numInsts                        127672513                       # Number of executed instructions (Count)
system.cpu0.numLoadInsts                     24135349                       # Number of load instructions executed (Count)
system.cpu0.numSquashedInsts                     2938                       # Number of squashed instructions skipped in execute (Count)
system.cpu0.numSwp                                  0                       # Number of swp insts executed (Count)
system.cpu0.numNop                                  0                       # Number of nop insts executed (Count)
system.cpu0.numRefs                          29420476                       # Number of memory reference insts executed (Count)
system.cpu0.numBranches                       7906971                       # Number of branches executed (Count)
system.cpu0.numStoreInsts                     5285127                       # Number of stores executed (Count)
system.cpu0.numRate                          0.550713                       # Inst execution rate ((Count/Cycle))
system.cpu0.timesIdled                            552                       # Number of times that the entire CPU went into an idle state and unscheduled itself (Count)
system.cpu0.idleCycles                          95207                       # Total number of cycles that the CPU has spent unscheduled due to idling (Cycle)
system.cpu0.quiesceCycles                      303696                       # Total number of cycles that CPU has spent quiesced or waiting for an interrupt (Cycle)
system.cpu0.committedInsts                  124935080                       # Number of Instructions Simulated (Count)
system.cpu0.committedOps                    124935220                       # Number of Ops (including micro ops) Simulated (Count)
system.cpu0.cpi                              1.855613                       # CPI: Cycles Per Instruction ((Cycle/Count))
system.cpu0.totalCpi                         1.855613                       # CPI: Total CPI of All Threads ((Cycle/Count))
system.cpu0.ipc                              0.538905                       # IPC: Instructions Per Cycle ((Count/Cycle))
system.cpu0.totalIpc                         0.538905                       # IPC: Total IPC of All Threads ((Count/Cycle))
system.cpu0.intRegfileReads                  86837695                       # Number of integer regfile reads (Count)
system.cpu0.intRegfileWrites                 51066650                       # Number of integer regfile writes (Count)
system.cpu0.fpRegfileReads                  100192410                       # Number of floating regfile reads (Count)
system.cpu0.fpRegfileWrites                  62957654                       # Number of floating regfile writes (Count)
system.cpu0.miscRegfileReads                195675451                       # number of misc regfile reads (Count)
system.cpu0.miscRegfileWrites                63438940                       # number of misc regfile writes (Count)
system.cpu0.MemDepUnit__0.insertedLoads      21581515                       # Number of loads inserted to the mem dependence unit. (Count)
system.cpu0.MemDepUnit__0.insertedStores      5287459                       # Number of stores inserted to the mem dependence unit. (Count)
system.cpu0.MemDepUnit__0.conflictingLoads      4719403                       # Number of conflicting loads. (Count)
system.cpu0.MemDepUnit__0.conflictingStores      3146168                       # Number of conflicting stores. (Count)
system.cpu0.MemDepUnit__1.insertedLoads             0                       # Number of loads inserted to the mem dependence unit. (Count)
system.cpu0.MemDepUnit__1.insertedStores            0                       # Number of stores inserted to the mem dependence unit. (Count)
system.cpu0.MemDepUnit__1.conflictingLoads            0                       # Number of conflicting loads. (Count)
system.cpu0.MemDepUnit__1.conflictingStores            0                       # Number of conflicting stores. (Count)
system.cpu0.MemDepUnit__2.insertedLoads             0                       # Number of loads inserted to the mem dependence unit. (Count)
system.cpu0.MemDepUnit__2.insertedStores            0                       # Number of stores inserted to the mem dependence unit. (Count)
system.cpu0.MemDepUnit__2.conflictingLoads            0                       # Number of conflicting loads. (Count)
system.cpu0.MemDepUnit__2.conflictingStores            0                       # Number of conflicting stores. (Count)
system.cpu0.MemDepUnit__3.insertedLoads             0                       # Number of loads inserted to the mem dependence unit. (Count)
system.cpu0.MemDepUnit__3.insertedStores            0                       # Number of stores inserted to the mem dependence unit. (Count)
system.cpu0.MemDepUnit__3.conflictingLoads            0                       # Number of conflicting loads. (Count)
system.cpu0.MemDepUnit__3.conflictingStores            0                       # Number of conflicting stores. (Count)
system.cpu0.branchPred.lookups                7919511                       # Number of BP lookups (Count)
system.cpu0.branchPred.condPredicted          3711698                       # Number of conditional branches predicted (Count)
system.cpu0.branchPred.condIncorrect             1715                       # Number of conditional branches incorrect (Count)
system.cpu0.branchPred.BTBLookups             5809160                       # Number of BTB lookups (Count)
system.cpu0.branchPred.BTBHits                5807342                       # Number of BTB hits (Count)
system.cpu0.branchPred.BTBHitRatio           0.999687                       # BTB Hit Ratio (Ratio)
system.cpu0.branchPred.RASUsed                2102792                       # Number of times the RAS was used to get a target. (Count)
system.cpu0.branchPred.RASIncorrect                10                       # Number of incorrect RAS predictions. (Count)
system.cpu0.branchPred.indirectLookups            379                       # Number of indirect predictor lookups. (Count)
system.cpu0.branchPred.indirectHits                53                       # Number of indirect target hits. (Count)
system.cpu0.branchPred.indirectMisses             326                       # Number of indirect misses. (Count)
system.cpu0.branchPred.indirectMispredicted          105                       # Number of mispredicted indirect branches. (Count)
system.cpu0.commit.commitSquashedInsts         243468                       # The number of squashed insts skipped by commit (Count)
system.cpu0.commit.commitNonSpecStalls            651                       # The number of times commit has been forced to stall to communicate backwards (Count)
system.cpu0.commit.branchMispredicts             1248                       # The number of times a branch was mispredicted (Count)
system.cpu0.commit.numCommittedDist::samples    231703605                       # Number of insts commited each cycle (Count)
system.cpu0.commit.numCommittedDist::mean     0.539203                       # Number of insts commited each cycle (Count)
system.cpu0.commit.numCommittedDist::stdev     1.370316                       # Number of insts commited each cycle (Count)
system.cpu0.commit.numCommittedDist::underflows            0      0.00%      0.00% # Number of insts commited each cycle (Count)
system.cpu0.commit.numCommittedDist::0      172951499     74.64%     74.64% # Number of insts commited each cycle (Count)
system.cpu0.commit.numCommittedDist::1       32839064     14.17%     88.82% # Number of insts commited each cycle (Count)
system.cpu0.commit.numCommittedDist::2       15407240      6.65%     95.47% # Number of insts commited each cycle (Count)
system.cpu0.commit.numCommittedDist::3        2504946      1.08%     96.55% # Number of insts commited each cycle (Count)
system.cpu0.commit.numCommittedDist::4        1891005      0.82%     97.36% # Number of insts commited each cycle (Count)
system.cpu0.commit.numCommittedDist::5         713750      0.31%     97.67% # Number of insts commited each cycle (Count)
system.cpu0.commit.numCommittedDist::6           4556      0.00%     97.67% # Number of insts commited each cycle (Count)
system.cpu0.commit.numCommittedDist::7         525628      0.23%     97.90% # Number of insts commited each cycle (Count)
system.cpu0.commit.numCommittedDist::8        4865917      2.10%    100.00% # Number of insts commited each cycle (Count)
system.cpu0.commit.numCommittedDist::overflows            0      0.00%    100.00% # Number of insts commited each cycle (Count)
system.cpu0.commit.numCommittedDist::min_value            0                       # Number of insts commited each cycle (Count)
system.cpu0.commit.numCommittedDist::max_value            8                       # Number of insts commited each cycle (Count)
system.cpu0.commit.numCommittedDist::total    231703605                       # Number of insts commited each cycle (Count)
system.cpu0.commit.instsCommitted           124935080                       # Number of instructions committed (Count)
system.cpu0.commit.opsCommitted             124935220                       # Number of ops (including micro ops) committed (Count)
system.cpu0.commit.memRefs                   26798787                       # Number of memory references committed (Count)
system.cpu0.commit.loads                     21529357                       # Number of loads committed (Count)
system.cpu0.commit.amos                           184                       # Number of atomic instructions committed (Count)
system.cpu0.commit.membars                        290                       # Number of memory barriers committed (Count)
system.cpu0.commit.branches                   7889062                       # Number of branches committed (Count)
system.cpu0.commit.vectorInstructions               0                       # Number of committed Vector instructions. (Count)
system.cpu0.commit.floating                  71827610                       # Number of committed floating point instructions. (Count)
system.cpu0.commit.integer                   79321498                       # Number of committed integer instructions. (Count)
system.cpu0.commit.functionCalls              2097760                       # Number of function calls committed. (Count)
system.cpu0.commit.committedInstType_0::No_OpClass          299      0.00%      0.00% # Class of committed instruction (Count)
system.cpu0.commit.committedInstType_0::IntAlu     34697015     27.77%     27.77% # Class of committed instruction (Count)
system.cpu0.commit.committedInstType_0::IntMult           57      0.00%     27.77% # Class of committed instruction (Count)
system.cpu0.commit.committedInstType_0::IntDiv          122      0.00%     27.77% # Class of committed instruction (Count)
system.cpu0.commit.committedInstType_0::FloatAdd     14155794     11.33%     39.10% # Class of committed instruction (Count)
system.cpu0.commit.committedInstType_0::FloatCmp            6      0.00%     39.10% # Class of committed instruction (Count)
system.cpu0.commit.committedInstType_0::FloatCvt     17825825     14.27%     53.37% # Class of committed instruction (Count)
system.cpu0.commit.committedInstType_0::FloatMult     28311577     22.66%     76.03% # Class of committed instruction (Count)
system.cpu0.commit.committedInstType_0::FloatMultAcc            0      0.00%     76.03% # Class of committed instruction (Count)
system.cpu0.commit.committedInstType_0::FloatDiv            0      0.00%     76.03% # Class of committed instruction (Count)
system.cpu0.commit.committedInstType_0::FloatMisc      3145738      2.52%     78.55% # Class of committed instruction (Count)
system.cpu0.commit.committedInstType_0::FloatSqrt            0      0.00%     78.55% # Class of committed instruction (Count)
system.cpu0.commit.committedInstType_0::SimdAdd            0      0.00%     78.55% # Class of committed instruction (Count)
system.cpu0.commit.committedInstType_0::SimdAddAcc            0      0.00%     78.55% # Class of committed instruction (Count)
system.cpu0.commit.committedInstType_0::SimdAlu            0      0.00%     78.55% # Class of committed instruction (Count)
system.cpu0.commit.committedInstType_0::SimdCmp            0      0.00%     78.55% # Class of committed instruction (Count)
system.cpu0.commit.committedInstType_0::SimdCvt            0      0.00%     78.55% # Class of committed instruction (Count)
system.cpu0.commit.committedInstType_0::SimdMisc            0      0.00%     78.55% # Class of committed instruction (Count)
system.cpu0.commit.committedInstType_0::SimdMult            0      0.00%     78.55% # Class of committed instruction (Count)
system.cpu0.commit.committedInstType_0::SimdMultAcc            0      0.00%     78.55% # Class of committed instruction (Count)
system.cpu0.commit.committedInstType_0::SimdShift            0      0.00%     78.55% # Class of committed instruction (Count)
system.cpu0.commit.committedInstType_0::SimdShiftAcc            0      0.00%     78.55% # Class of committed instruction (Count)
system.cpu0.commit.committedInstType_0::SimdDiv            0      0.00%     78.55% # Class of committed instruction (Count)
system.cpu0.commit.committedInstType_0::SimdSqrt            0      0.00%     78.55% # Class of committed instruction (Count)
system.cpu0.commit.committedInstType_0::SimdFloatAdd            0      0.00%     78.55% # Class of committed instruction (Count)
system.cpu0.commit.committedInstType_0::SimdFloatAlu            0      0.00%     78.55% # Class of committed instruction (Count)
system.cpu0.commit.committedInstType_0::SimdFloatCmp            0      0.00%     78.55% # Class of committed instruction (Count)
system.cpu0.commit.committedInstType_0::SimdFloatCvt            0      0.00%     78.55% # Class of committed instruction (Count)
system.cpu0.commit.committedInstType_0::SimdFloatDiv            0      0.00%     78.55% # Class of committed instruction (Count)
system.cpu0.commit.committedInstType_0::SimdFloatMisc            0      0.00%     78.55% # Class of committed instruction (Count)
system.cpu0.commit.committedInstType_0::SimdFloatMult            0      0.00%     78.55% # Class of committed instruction (Count)
system.cpu0.commit.committedInstType_0::SimdFloatMultAcc            0      0.00%     78.55% # Class of committed instruction (Count)
system.cpu0.commit.committedInstType_0::SimdFloatSqrt            0      0.00%     78.55% # Class of committed instruction (Count)
system.cpu0.commit.committedInstType_0::SimdReduceAdd            0      0.00%     78.55% # Class of committed instruction (Count)
system.cpu0.commit.committedInstType_0::SimdReduceAlu            0      0.00%     78.55% # Class of committed instruction (Count)
system.cpu0.commit.committedInstType_0::SimdReduceCmp            0      0.00%     78.55% # Class of committed instruction (Count)
system.cpu0.commit.committedInstType_0::SimdFloatReduceAdd            0      0.00%     78.55% # Class of committed instruction (Count)
system.cpu0.commit.committedInstType_0::SimdFloatReduceCmp            0      0.00%     78.55% # Class of committed instruction (Count)
system.cpu0.commit.committedInstType_0::SimdAes            0      0.00%     78.55% # Class of committed instruction (Count)
system.cpu0.commit.committedInstType_0::SimdAesMix            0      0.00%     78.55% # Class of committed instruction (Count)
system.cpu0.commit.committedInstType_0::SimdSha1Hash            0      0.00%     78.55% # Class of committed instruction (Count)
system.cpu0.commit.committedInstType_0::SimdSha1Hash2            0      0.00%     78.55% # Class of committed instruction (Count)
system.cpu0.commit.committedInstType_0::SimdSha256Hash            0      0.00%     78.55% # Class of committed instruction (Count)
system.cpu0.commit.committedInstType_0::SimdSha256Hash2            0      0.00%     78.55% # Class of committed instruction (Count)
system.cpu0.commit.committedInstType_0::SimdShaSigma2            0      0.00%     78.55% # Class of committed instruction (Count)
system.cpu0.commit.committedInstType_0::SimdShaSigma3            0      0.00%     78.55% # Class of committed instruction (Count)
system.cpu0.commit.committedInstType_0::SimdPredAlu            0      0.00%     78.55% # Class of committed instruction (Count)
system.cpu0.commit.committedInstType_0::MemRead     13140906     10.52%     89.07% # Class of committed instruction (Count)
system.cpu0.commit.committedInstType_0::MemWrite      5269211      4.22%     93.29% # Class of committed instruction (Count)
system.cpu0.commit.committedInstType_0::FloatMemRead      8388635      6.71%    100.00% # Class of committed instruction (Count)
system.cpu0.commit.committedInstType_0::FloatMemWrite           35      0.00%    100.00% # Class of committed instruction (Count)
system.cpu0.commit.committedInstType_0::IprAccess            0      0.00%    100.00% # Class of committed instruction (Count)
system.cpu0.commit.committedInstType_0::InstPrefetch            0      0.00%    100.00% # Class of committed instruction (Count)
system.cpu0.commit.committedInstType_0::total    124935220                       # Class of committed instruction (Count)
system.cpu0.commit.commitEligibleSamples      4865917                       # number cycles where commit BW limit reached (Cycle)
system.cpu0.dcache.demandHits::cpu0.data     22950811                       # number of demand (read+write) hits (Count)
system.cpu0.dcache.demandHits::total         22950811                       # number of demand (read+write) hits (Count)
system.cpu0.dcache.overallHits::cpu0.data     22950811                       # number of overall hits (Count)
system.cpu0.dcache.overallHits::total        22950811                       # number of overall hits (Count)
system.cpu0.dcache.demandMisses::cpu0.data      3852305                       # number of demand (read+write) misses (Count)
system.cpu0.dcache.demandMisses::total        3852305                       # number of demand (read+write) misses (Count)
system.cpu0.dcache.overallMisses::cpu0.data      3852305                       # number of overall misses (Count)
system.cpu0.dcache.overallMisses::total       3852305                       # number of overall misses (Count)
system.cpu0.dcache.demandMissLatency::cpu0.data 264983805685                       # number of demand (read+write) miss ticks (Tick)
system.cpu0.dcache.demandMissLatency::total 264983805685                       # number of demand (read+write) miss ticks (Tick)
system.cpu0.dcache.overallMissLatency::cpu0.data 264983805685                       # number of overall miss ticks (Tick)
system.cpu0.dcache.overallMissLatency::total 264983805685                       # number of overall miss ticks (Tick)
system.cpu0.dcache.demandAccesses::cpu0.data     26803116                       # number of demand (read+write) accesses (Count)
system.cpu0.dcache.demandAccesses::total     26803116                       # number of demand (read+write) accesses (Count)
system.cpu0.dcache.overallAccesses::cpu0.data     26803116                       # number of overall (read+write) accesses (Count)
system.cpu0.dcache.overallAccesses::total     26803116                       # number of overall (read+write) accesses (Count)
system.cpu0.dcache.demandMissRate::cpu0.data     0.143726                       # miss rate for demand accesses (Ratio)
system.cpu0.dcache.demandMissRate::total     0.143726                       # miss rate for demand accesses (Ratio)
system.cpu0.dcache.overallMissRate::cpu0.data     0.143726                       # miss rate for overall accesses (Ratio)
system.cpu0.dcache.overallMissRate::total     0.143726                       # miss rate for overall accesses (Ratio)
system.cpu0.dcache.demandAvgMissLatency::cpu0.data 68785.780380                       # average overall miss latency in ticks ((Tick/Count))
system.cpu0.dcache.demandAvgMissLatency::total 68785.780380                       # average overall miss latency in ticks ((Tick/Count))
system.cpu0.dcache.overallAvgMissLatency::cpu0.data 68785.780380                       # average overall miss latency ((Tick/Count))
system.cpu0.dcache.overallAvgMissLatency::total 68785.780380                       # average overall miss latency ((Tick/Count))
system.cpu0.dcache.blockedCycles::no_mshrs     11977801                       # number of cycles access was blocked (Cycle)
system.cpu0.dcache.blockedCycles::no_targets            0                       # number of cycles access was blocked (Cycle)
system.cpu0.dcache.blockedCauses::no_mshrs       536271                       # number of times access was blocked (Count)
system.cpu0.dcache.blockedCauses::no_targets            0                       # number of times access was blocked (Count)
system.cpu0.dcache.avgBlocked::no_mshrs     22.335351                       # average number of cycles each access was blocked ((Cycle/Count))
system.cpu0.dcache.avgBlocked::no_targets          nan                       # average number of cycles each access was blocked ((Cycle/Count))
system.cpu0.dcache.writebacks::writebacks       973405                       # number of writebacks (Count)
system.cpu0.dcache.writebacks::total           973405                       # number of writebacks (Count)
system.cpu0.dcache.demandMshrHits::cpu0.data      2483822                       # number of demand (read+write) MSHR hits (Count)
system.cpu0.dcache.demandMshrHits::total      2483822                       # number of demand (read+write) MSHR hits (Count)
system.cpu0.dcache.overallMshrHits::cpu0.data      2483822                       # number of overall MSHR hits (Count)
system.cpu0.dcache.overallMshrHits::total      2483822                       # number of overall MSHR hits (Count)
system.cpu0.dcache.demandMshrMisses::cpu0.data      1368483                       # number of demand (read+write) MSHR misses (Count)
system.cpu0.dcache.demandMshrMisses::total      1368483                       # number of demand (read+write) MSHR misses (Count)
system.cpu0.dcache.overallMshrMisses::cpu0.data      1368483                       # number of overall MSHR misses (Count)
system.cpu0.dcache.overallMshrMisses::total      1368483                       # number of overall MSHR misses (Count)
system.cpu0.dcache.demandMshrMissLatency::cpu0.data  71600005674                       # number of demand (read+write) MSHR miss ticks (Tick)
system.cpu0.dcache.demandMshrMissLatency::total  71600005674                       # number of demand (read+write) MSHR miss ticks (Tick)
system.cpu0.dcache.overallMshrMissLatency::cpu0.data  71600005674                       # number of overall MSHR miss ticks (Tick)
system.cpu0.dcache.overallMshrMissLatency::total  71600005674                       # number of overall MSHR miss ticks (Tick)
system.cpu0.dcache.demandMshrMissRate::cpu0.data     0.051057                       # mshr miss ratio for demand accesses (Ratio)
system.cpu0.dcache.demandMshrMissRate::total     0.051057                       # mshr miss ratio for demand accesses (Ratio)
system.cpu0.dcache.overallMshrMissRate::cpu0.data     0.051057                       # mshr miss ratio for overall accesses (Ratio)
system.cpu0.dcache.overallMshrMissRate::total     0.051057                       # mshr miss ratio for overall accesses (Ratio)
system.cpu0.dcache.demandAvgMshrMissLatency::cpu0.data 52320.712551                       # average overall mshr miss latency ((Tick/Count))
system.cpu0.dcache.demandAvgMshrMissLatency::total 52320.712551                       # average overall mshr miss latency ((Tick/Count))
system.cpu0.dcache.overallAvgMshrMissLatency::cpu0.data 52320.712551                       # average overall mshr miss latency ((Tick/Count))
system.cpu0.dcache.overallAvgMshrMissLatency::total 52320.712551                       # average overall mshr miss latency ((Tick/Count))
system.cpu0.dcache.replacements               1363647                       # number of replacements (Count)
system.cpu0.dcache.LoadLockedReq.hits::cpu0.data           84                       # number of LoadLockedReq hits (Count)
system.cpu0.dcache.LoadLockedReq.hits::total           84                       # number of LoadLockedReq hits (Count)
system.cpu0.dcache.LoadLockedReq.misses::cpu0.data           38                       # number of LoadLockedReq misses (Count)
system.cpu0.dcache.LoadLockedReq.misses::total           38                       # number of LoadLockedReq misses (Count)
system.cpu0.dcache.LoadLockedReq.missLatency::cpu0.data      1714617                       # number of LoadLockedReq miss ticks (Tick)
system.cpu0.dcache.LoadLockedReq.missLatency::total      1714617                       # number of LoadLockedReq miss ticks (Tick)
system.cpu0.dcache.LoadLockedReq.accesses::cpu0.data          122                       # number of LoadLockedReq accesses(hits+misses) (Count)
system.cpu0.dcache.LoadLockedReq.accesses::total          122                       # number of LoadLockedReq accesses(hits+misses) (Count)
system.cpu0.dcache.LoadLockedReq.missRate::cpu0.data     0.311475                       # miss rate for LoadLockedReq accesses (Ratio)
system.cpu0.dcache.LoadLockedReq.missRate::total     0.311475                       # miss rate for LoadLockedReq accesses (Ratio)
system.cpu0.dcache.LoadLockedReq.avgMissLatency::cpu0.data 45121.500000                       # average LoadLockedReq miss latency ((Tick/Count))
system.cpu0.dcache.LoadLockedReq.avgMissLatency::total 45121.500000                       # average LoadLockedReq miss latency ((Tick/Count))
system.cpu0.dcache.LoadLockedReq.mshrHits::cpu0.data           32                       # number of LoadLockedReq MSHR hits (Count)
system.cpu0.dcache.LoadLockedReq.mshrHits::total           32                       # number of LoadLockedReq MSHR hits (Count)
system.cpu0.dcache.LoadLockedReq.mshrMisses::cpu0.data            6                       # number of LoadLockedReq MSHR misses (Count)
system.cpu0.dcache.LoadLockedReq.mshrMisses::total            6                       # number of LoadLockedReq MSHR misses (Count)
system.cpu0.dcache.LoadLockedReq.mshrMissLatency::cpu0.data       448218                       # number of LoadLockedReq MSHR miss ticks (Tick)
system.cpu0.dcache.LoadLockedReq.mshrMissLatency::total       448218                       # number of LoadLockedReq MSHR miss ticks (Tick)
system.cpu0.dcache.LoadLockedReq.mshrMissRate::cpu0.data     0.049180                       # mshr miss rate for LoadLockedReq accesses (Ratio)
system.cpu0.dcache.LoadLockedReq.mshrMissRate::total     0.049180                       # mshr miss rate for LoadLockedReq accesses (Ratio)
system.cpu0.dcache.LoadLockedReq.avgMshrMissLatency::cpu0.data        74703                       # average LoadLockedReq mshr miss latency ((Tick/Count))
system.cpu0.dcache.LoadLockedReq.avgMshrMissLatency::total        74703                       # average LoadLockedReq mshr miss latency ((Tick/Count))
system.cpu0.dcache.ReadReq.hits::cpu0.data     18690328                       # number of ReadReq hits (Count)
system.cpu0.dcache.ReadReq.hits::total       18690328                       # number of ReadReq hits (Count)
system.cpu0.dcache.ReadReq.misses::cpu0.data      2843642                       # number of ReadReq misses (Count)
system.cpu0.dcache.ReadReq.misses::total      2843642                       # number of ReadReq misses (Count)
system.cpu0.dcache.ReadReq.missLatency::cpu0.data 226250465724                       # number of ReadReq miss ticks (Tick)
system.cpu0.dcache.ReadReq.missLatency::total 226250465724                       # number of ReadReq miss ticks (Tick)
system.cpu0.dcache.ReadReq.accesses::cpu0.data     21533970                       # number of ReadReq accesses(hits+misses) (Count)
system.cpu0.dcache.ReadReq.accesses::total     21533970                       # number of ReadReq accesses(hits+misses) (Count)
system.cpu0.dcache.ReadReq.missRate::cpu0.data     0.132054                       # miss rate for ReadReq accesses (Ratio)
system.cpu0.dcache.ReadReq.missRate::total     0.132054                       # miss rate for ReadReq accesses (Ratio)
system.cpu0.dcache.ReadReq.avgMissLatency::cpu0.data 79563.625001                       # average ReadReq miss latency ((Tick/Count))
system.cpu0.dcache.ReadReq.avgMissLatency::total 79563.625001                       # average ReadReq miss latency ((Tick/Count))
system.cpu0.dcache.ReadReq.mshrHits::cpu0.data      2380966                       # number of ReadReq MSHR hits (Count)
system.cpu0.dcache.ReadReq.mshrHits::total      2380966                       # number of ReadReq MSHR hits (Count)
system.cpu0.dcache.ReadReq.mshrMisses::cpu0.data       462676                       # number of ReadReq MSHR misses (Count)
system.cpu0.dcache.ReadReq.mshrMisses::total       462676                       # number of ReadReq MSHR misses (Count)
system.cpu0.dcache.ReadReq.mshrMissLatency::cpu0.data  36548658423                       # number of ReadReq MSHR miss ticks (Tick)
system.cpu0.dcache.ReadReq.mshrMissLatency::total  36548658423                       # number of ReadReq MSHR miss ticks (Tick)
system.cpu0.dcache.ReadReq.mshrMissRate::cpu0.data     0.021486                       # mshr miss rate for ReadReq accesses (Ratio)
system.cpu0.dcache.ReadReq.mshrMissRate::total     0.021486                       # mshr miss rate for ReadReq accesses (Ratio)
system.cpu0.dcache.ReadReq.avgMshrMissLatency::cpu0.data 78994.065875                       # average ReadReq mshr miss latency ((Tick/Count))
system.cpu0.dcache.ReadReq.avgMshrMissLatency::total 78994.065875                       # average ReadReq mshr miss latency ((Tick/Count))
system.cpu0.dcache.StoreCondReq.hits::cpu0.data           81                       # number of StoreCondReq hits (Count)
system.cpu0.dcache.StoreCondReq.hits::total           81                       # number of StoreCondReq hits (Count)
system.cpu0.dcache.StoreCondReq.misses::cpu0.data           18                       # number of StoreCondReq misses (Count)
system.cpu0.dcache.StoreCondReq.misses::total           18                       # number of StoreCondReq misses (Count)
system.cpu0.dcache.StoreCondReq.missLatency::cpu0.data       432567                       # number of StoreCondReq miss ticks (Tick)
system.cpu0.dcache.StoreCondReq.missLatency::total       432567                       # number of StoreCondReq miss ticks (Tick)
system.cpu0.dcache.StoreCondReq.accesses::cpu0.data           99                       # number of StoreCondReq accesses(hits+misses) (Count)
system.cpu0.dcache.StoreCondReq.accesses::total           99                       # number of StoreCondReq accesses(hits+misses) (Count)
system.cpu0.dcache.StoreCondReq.missRate::cpu0.data     0.181818                       # miss rate for StoreCondReq accesses (Ratio)
system.cpu0.dcache.StoreCondReq.missRate::total     0.181818                       # miss rate for StoreCondReq accesses (Ratio)
system.cpu0.dcache.StoreCondReq.avgMissLatency::cpu0.data 24031.500000                       # average StoreCondReq miss latency ((Tick/Count))
system.cpu0.dcache.StoreCondReq.avgMissLatency::total 24031.500000                       # average StoreCondReq miss latency ((Tick/Count))
system.cpu0.dcache.StoreCondReq.mshrMisses::cpu0.data           18                       # number of StoreCondReq MSHR misses (Count)
system.cpu0.dcache.StoreCondReq.mshrMisses::total           18                       # number of StoreCondReq MSHR misses (Count)
system.cpu0.dcache.StoreCondReq.mshrMissLatency::cpu0.data       420579                       # number of StoreCondReq MSHR miss ticks (Tick)
system.cpu0.dcache.StoreCondReq.mshrMissLatency::total       420579                       # number of StoreCondReq MSHR miss ticks (Tick)
system.cpu0.dcache.StoreCondReq.mshrMissRate::cpu0.data     0.181818                       # mshr miss rate for StoreCondReq accesses (Ratio)
system.cpu0.dcache.StoreCondReq.mshrMissRate::total     0.181818                       # mshr miss rate for StoreCondReq accesses (Ratio)
system.cpu0.dcache.StoreCondReq.avgMshrMissLatency::cpu0.data 23365.500000                       # average StoreCondReq mshr miss latency ((Tick/Count))
system.cpu0.dcache.StoreCondReq.avgMshrMissLatency::total 23365.500000                       # average StoreCondReq mshr miss latency ((Tick/Count))
system.cpu0.dcache.SwapReq.hits::cpu0.data          157                       # number of SwapReq hits (Count)
system.cpu0.dcache.SwapReq.hits::total            157                       # number of SwapReq hits (Count)
system.cpu0.dcache.SwapReq.misses::cpu0.data           27                       # number of SwapReq misses (Count)
system.cpu0.dcache.SwapReq.misses::total           27                       # number of SwapReq misses (Count)
system.cpu0.dcache.SwapReq.missLatency::cpu0.data       917082                       # number of SwapReq miss ticks (Tick)
system.cpu0.dcache.SwapReq.missLatency::total       917082                       # number of SwapReq miss ticks (Tick)
system.cpu0.dcache.SwapReq.accesses::cpu0.data          184                       # number of SwapReq accesses(hits+misses) (Count)
system.cpu0.dcache.SwapReq.accesses::total          184                       # number of SwapReq accesses(hits+misses) (Count)
system.cpu0.dcache.SwapReq.missRate::cpu0.data     0.146739                       # miss rate for SwapReq accesses (Ratio)
system.cpu0.dcache.SwapReq.missRate::total     0.146739                       # miss rate for SwapReq accesses (Ratio)
system.cpu0.dcache.SwapReq.avgMissLatency::cpu0.data        33966                       # average SwapReq miss latency ((Tick/Count))
system.cpu0.dcache.SwapReq.avgMissLatency::total        33966                       # average SwapReq miss latency ((Tick/Count))
system.cpu0.dcache.SwapReq.mshrHits::cpu0.data           10                       # number of SwapReq MSHR hits (Count)
system.cpu0.dcache.SwapReq.mshrHits::total           10                       # number of SwapReq MSHR hits (Count)
system.cpu0.dcache.SwapReq.mshrMisses::cpu0.data           17                       # number of SwapReq MSHR misses (Count)
system.cpu0.dcache.SwapReq.mshrMisses::total           17                       # number of SwapReq MSHR misses (Count)
system.cpu0.dcache.SwapReq.mshrMissLatency::cpu0.data       899100                       # number of SwapReq MSHR miss ticks (Tick)
system.cpu0.dcache.SwapReq.mshrMissLatency::total       899100                       # number of SwapReq MSHR miss ticks (Tick)
system.cpu0.dcache.SwapReq.mshrMissRate::cpu0.data     0.092391                       # mshr miss rate for SwapReq accesses (Ratio)
system.cpu0.dcache.SwapReq.mshrMissRate::total     0.092391                       # mshr miss rate for SwapReq accesses (Ratio)
system.cpu0.dcache.SwapReq.avgMshrMissLatency::cpu0.data 52888.235294                       # average SwapReq mshr miss latency ((Tick/Count))
system.cpu0.dcache.SwapReq.avgMshrMissLatency::total 52888.235294                       # average SwapReq mshr miss latency ((Tick/Count))
system.cpu0.dcache.WriteReq.hits::cpu0.data      4260483                       # number of WriteReq hits (Count)
system.cpu0.dcache.WriteReq.hits::total       4260483                       # number of WriteReq hits (Count)
system.cpu0.dcache.WriteReq.misses::cpu0.data      1008663                       # number of WriteReq misses (Count)
system.cpu0.dcache.WriteReq.misses::total      1008663                       # number of WriteReq misses (Count)
system.cpu0.dcache.WriteReq.missLatency::cpu0.data  38733339961                       # number of WriteReq miss ticks (Tick)
system.cpu0.dcache.WriteReq.missLatency::total  38733339961                       # number of WriteReq miss ticks (Tick)
system.cpu0.dcache.WriteReq.accesses::cpu0.data      5269146                       # number of WriteReq accesses(hits+misses) (Count)
system.cpu0.dcache.WriteReq.accesses::total      5269146                       # number of WriteReq accesses(hits+misses) (Count)
system.cpu0.dcache.WriteReq.missRate::cpu0.data     0.191428                       # miss rate for WriteReq accesses (Ratio)
system.cpu0.dcache.WriteReq.missRate::total     0.191428                       # miss rate for WriteReq accesses (Ratio)
system.cpu0.dcache.WriteReq.avgMissLatency::cpu0.data 38400.674914                       # average WriteReq miss latency ((Tick/Count))
system.cpu0.dcache.WriteReq.avgMissLatency::total 38400.674914                       # average WriteReq miss latency ((Tick/Count))
system.cpu0.dcache.WriteReq.mshrHits::cpu0.data       102856                       # number of WriteReq MSHR hits (Count)
system.cpu0.dcache.WriteReq.mshrHits::total       102856                       # number of WriteReq MSHR hits (Count)
system.cpu0.dcache.WriteReq.mshrMisses::cpu0.data       905807                       # number of WriteReq MSHR misses (Count)
system.cpu0.dcache.WriteReq.mshrMisses::total       905807                       # number of WriteReq MSHR misses (Count)
system.cpu0.dcache.WriteReq.mshrMissLatency::cpu0.data  35051347251                       # number of WriteReq MSHR miss ticks (Tick)
system.cpu0.dcache.WriteReq.mshrMissLatency::total  35051347251                       # number of WriteReq MSHR miss ticks (Tick)
system.cpu0.dcache.WriteReq.mshrMissRate::cpu0.data     0.171908                       # mshr miss rate for WriteReq accesses (Ratio)
system.cpu0.dcache.WriteReq.mshrMissRate::total     0.171908                       # mshr miss rate for WriteReq accesses (Ratio)
system.cpu0.dcache.WriteReq.avgMshrMissLatency::cpu0.data 38696.264492                       # average WriteReq mshr miss latency ((Tick/Count))
system.cpu0.dcache.WriteReq.avgMshrMissLatency::total 38696.264492                       # average WriteReq mshr miss latency ((Tick/Count))
system.cpu0.dcache.power_state.pwrStateResidencyTicks::UNDEFINED  77300916039                       # Cumulative time (in ticks) in various power states (Tick)
system.cpu0.dcache.tags.tagsInUse          511.493756                       # Average ticks per tags in use ((Tick/Count))
system.cpu0.dcache.tags.totalRefs            24321656                       # Total number of references to valid blocks. (Count)
system.cpu0.dcache.tags.sampledRefs           1366222                       # Sample count of references to valid blocks. (Count)
system.cpu0.dcache.tags.avgRefs             17.802126                       # Average number of references to valid blocks. ((Count/Count))
system.cpu0.dcache.tags.warmupTick             268065                       # The tick when the warmup percentage was hit. (Tick)
system.cpu0.dcache.tags.occupancies::cpu0.data   511.493756                       # Average occupied blocks per tick, per requestor ((Count/Tick))
system.cpu0.dcache.tags.avgOccs::cpu0.data     0.999011                       # Average percentage of cache occupancy ((Ratio/Tick))
system.cpu0.dcache.tags.avgOccs::total       0.999011                       # Average percentage of cache occupancy ((Ratio/Tick))
system.cpu0.dcache.tags.occupanciesTaskId::1024          512                       # Occupied blocks per task id (Count)
system.cpu0.dcache.tags.ageTaskId_1024::0           47                       # Occupied blocks per task id, per block age (Count)
system.cpu0.dcache.tags.ageTaskId_1024::1          456                       # Occupied blocks per task id, per block age (Count)
system.cpu0.dcache.tags.ageTaskId_1024::3            9                       # Occupied blocks per task id, per block age (Count)
system.cpu0.dcache.tags.ratioOccsTaskId::1024            1                       # Ratio of occupied blocks and all blocks, per task id (Ratio)
system.cpu0.dcache.tags.tagAccesses         215794390                       # Number of tag accesses (Count)
system.cpu0.dcache.tags.dataAccesses        215794390                       # Number of data accesses (Count)
system.cpu0.dcache.tags.power_state.pwrStateResidencyTicks::UNDEFINED  77300916039                       # Cumulative time (in ticks) in various power states (Tick)
system.cpu0.decode.idleCycles                 4431294                       # Number of cycles decode is idle (Cycle)
system.cpu0.decode.blockedCycles            211636093                       # Number of cycles decode is blocked (Cycle)
system.cpu0.decode.runCycles                  1402379                       # Number of cycles decode is running (Cycle)
system.cpu0.decode.unblockCycles             14262748                       # Number of cycles decode is unblocking (Cycle)
system.cpu0.decode.squashCycles                  3468                       # Number of cycles decode is squashing (Cycle)
system.cpu0.decode.branchResolved             5803072                       # Number of times decode resolved a branch (Count)
system.cpu0.decode.branchMispred                  513                       # Number of times decode detected a branch misprediction (Count)
system.cpu0.decode.decodedInsts             125227138                       # Number of instructions handled by decode (Count)
system.cpu0.decode.squashedInsts                 1917                       # Number of squashed instructions handled by decode (Count)
system.cpu0.dtb_walker_cache.blockedCycles::no_mshrs            0                       # number of cycles access was blocked (Cycle)
system.cpu0.dtb_walker_cache.blockedCycles::no_targets            0                       # number of cycles access was blocked (Cycle)
system.cpu0.dtb_walker_cache.blockedCauses::no_mshrs            0                       # number of times access was blocked (Count)
system.cpu0.dtb_walker_cache.blockedCauses::no_targets            0                       # number of times access was blocked (Count)
system.cpu0.dtb_walker_cache.avgBlocked::no_mshrs          nan                       # average number of cycles each access was blocked ((Cycle/Count))
system.cpu0.dtb_walker_cache.avgBlocked::no_targets          nan                       # average number of cycles each access was blocked ((Cycle/Count))
system.cpu0.dtb_walker_cache.replacements            0                       # number of replacements (Count)
system.cpu0.dtb_walker_cache.power_state.pwrStateResidencyTicks::UNDEFINED  77300916039                       # Cumulative time (in ticks) in various power states (Tick)
system.cpu0.dtb_walker_cache.tags.tagsInUse            0                       # Average ticks per tags in use ((Tick/Count))
system.cpu0.dtb_walker_cache.tags.totalRefs            0                       # Total number of references to valid blocks. (Count)
system.cpu0.dtb_walker_cache.tags.sampledRefs            0                       # Sample count of references to valid blocks. (Count)
system.cpu0.dtb_walker_cache.tags.avgRefs          nan                       # Average number of references to valid blocks. ((Count/Count))
system.cpu0.dtb_walker_cache.tags.warmupTick            0                       # The tick when the warmup percentage was hit. (Tick)
system.cpu0.dtb_walker_cache.tags.tagAccesses            0                       # Number of tag accesses (Count)
system.cpu0.dtb_walker_cache.tags.dataAccesses            0                       # Number of data accesses (Count)
system.cpu0.dtb_walker_cache.tags.power_state.pwrStateResidencyTicks::UNDEFINED  77300916039                       # Cumulative time (in ticks) in various power states (Tick)
system.cpu0.fetch.icacheStallCycles          12644772                       # Number of cycles fetch is stalled on an Icache miss (Cycle)
system.cpu0.fetch.insts                     125331039                       # Number of instructions fetch has processed (Count)
system.cpu0.fetch.branches                    7919511                       # Number of branches that fetch encountered (Count)
system.cpu0.fetch.predictedBranches           7910187                       # Number of branches that fetch has predicted taken (Count)
system.cpu0.fetch.cycles                    219086886                       # Number of cycles fetch has run and was not squashing or blocked (Cycle)
system.cpu0.fetch.squashCycles                   7930                       # Number of cycles fetch has spent squashing (Cycle)
system.cpu0.fetch.miscStallCycles                  62                       # Number of cycles fetch has spent waiting on interrupts, or bad addresses, or out of MSHRs (Cycle)
system.cpu0.fetch.pendingTrapStallCycles          187                       # Number of stall cycles due to pending traps (Cycle)
system.cpu0.fetch.icacheWaitRetryStallCycles          110                       # Number of stall cycles due to full MSHR (Cycle)
system.cpu0.fetch.cacheLines                 12620844                       # Number of cache lines fetched (Count)
system.cpu0.fetch.icacheSquashes                  958                       # Number of outstanding Icache misses that were squashed (Count)
system.cpu0.fetch.nisnDist::samples         231735982                       # Number of instructions fetched each cycle (Total) (Count)
system.cpu0.fetch.nisnDist::mean             0.540837                       # Number of instructions fetched each cycle (Total) (Count)
system.cpu0.fetch.nisnDist::stdev            1.796002                       # Number of instructions fetched each cycle (Total) (Count)
system.cpu0.fetch.nisnDist::underflows              0      0.00%      0.00% # Number of instructions fetched each cycle (Total) (Count)
system.cpu0.fetch.nisnDist::0               208389386     89.93%     89.93% # Number of instructions fetched each cycle (Total) (Count)
system.cpu0.fetch.nisnDist::1                 1836142      0.79%     90.72% # Number of instructions fetched each cycle (Total) (Count)
system.cpu0.fetch.nisnDist::2                 2232715      0.96%     91.68% # Number of instructions fetched each cycle (Total) (Count)
system.cpu0.fetch.nisnDist::3                 2800576      1.21%     92.89% # Number of instructions fetched each cycle (Total) (Count)
system.cpu0.fetch.nisnDist::4                 1860102      0.80%     93.69% # Number of instructions fetched each cycle (Total) (Count)
system.cpu0.fetch.nisnDist::5                 2571920      1.11%     94.80% # Number of instructions fetched each cycle (Total) (Count)
system.cpu0.fetch.nisnDist::6                 2426071      1.05%     95.85% # Number of instructions fetched each cycle (Total) (Count)
system.cpu0.fetch.nisnDist::7                 1180969      0.51%     96.36% # Number of instructions fetched each cycle (Total) (Count)
system.cpu0.fetch.nisnDist::8                 8438101      3.64%    100.00% # Number of instructions fetched each cycle (Total) (Count)
system.cpu0.fetch.nisnDist::overflows               0      0.00%    100.00% # Number of instructions fetched each cycle (Total) (Count)
system.cpu0.fetch.nisnDist::min_value               0                       # Number of instructions fetched each cycle (Total) (Count)
system.cpu0.fetch.nisnDist::max_value               8                       # Number of instructions fetched each cycle (Total) (Count)
system.cpu0.fetch.nisnDist::total           231735982                       # Number of instructions fetched each cycle (Total) (Count)
system.cpu0.fetch.branchRate                 0.034161                       # Number of branch fetches per cycle (Ratio)
system.cpu0.fetch.rate                       0.540613                       # Number of inst fetches per cycle ((Count/Cycle))
system.cpu0.icache.demandHits::cpu0.inst     12619846                       # number of demand (read+write) hits (Count)
system.cpu0.icache.demandHits::total         12619846                       # number of demand (read+write) hits (Count)
system.cpu0.icache.overallHits::cpu0.inst     12619846                       # number of overall hits (Count)
system.cpu0.icache.overallHits::total        12619846                       # number of overall hits (Count)
system.cpu0.icache.demandMisses::cpu0.inst          997                       # number of demand (read+write) misses (Count)
system.cpu0.icache.demandMisses::total            997                       # number of demand (read+write) misses (Count)
system.cpu0.icache.overallMisses::cpu0.inst          997                       # number of overall misses (Count)
system.cpu0.icache.overallMisses::total           997                       # number of overall misses (Count)
system.cpu0.icache.demandMissLatency::cpu0.inst     82159423                       # number of demand (read+write) miss ticks (Tick)
system.cpu0.icache.demandMissLatency::total     82159423                       # number of demand (read+write) miss ticks (Tick)
system.cpu0.icache.overallMissLatency::cpu0.inst     82159423                       # number of overall miss ticks (Tick)
system.cpu0.icache.overallMissLatency::total     82159423                       # number of overall miss ticks (Tick)
system.cpu0.icache.demandAccesses::cpu0.inst     12620843                       # number of demand (read+write) accesses (Count)
system.cpu0.icache.demandAccesses::total     12620843                       # number of demand (read+write) accesses (Count)
system.cpu0.icache.overallAccesses::cpu0.inst     12620843                       # number of overall (read+write) accesses (Count)
system.cpu0.icache.overallAccesses::total     12620843                       # number of overall (read+write) accesses (Count)
system.cpu0.icache.demandMissRate::cpu0.inst     0.000079                       # miss rate for demand accesses (Ratio)
system.cpu0.icache.demandMissRate::total     0.000079                       # miss rate for demand accesses (Ratio)
system.cpu0.icache.overallMissRate::cpu0.inst     0.000079                       # miss rate for overall accesses (Ratio)
system.cpu0.icache.overallMissRate::total     0.000079                       # miss rate for overall accesses (Ratio)
system.cpu0.icache.demandAvgMissLatency::cpu0.inst 82406.642929                       # average overall miss latency in ticks ((Tick/Count))
system.cpu0.icache.demandAvgMissLatency::total 82406.642929                       # average overall miss latency in ticks ((Tick/Count))
system.cpu0.icache.overallAvgMissLatency::cpu0.inst 82406.642929                       # average overall miss latency ((Tick/Count))
system.cpu0.icache.overallAvgMissLatency::total 82406.642929                       # average overall miss latency ((Tick/Count))
system.cpu0.icache.blockedCycles::no_mshrs         2337                       # number of cycles access was blocked (Cycle)
system.cpu0.icache.blockedCycles::no_targets            0                       # number of cycles access was blocked (Cycle)
system.cpu0.icache.blockedCauses::no_mshrs           15                       # number of times access was blocked (Count)
system.cpu0.icache.blockedCauses::no_targets            0                       # number of times access was blocked (Count)
system.cpu0.icache.avgBlocked::no_mshrs    155.800000                       # average number of cycles each access was blocked ((Cycle/Count))
system.cpu0.icache.avgBlocked::no_targets          nan                       # average number of cycles each access was blocked ((Cycle/Count))
system.cpu0.icache.writebacks::writebacks          205                       # number of writebacks (Count)
system.cpu0.icache.writebacks::total              205                       # number of writebacks (Count)
system.cpu0.icache.demandMshrHits::cpu0.inst          298                       # number of demand (read+write) MSHR hits (Count)
system.cpu0.icache.demandMshrHits::total          298                       # number of demand (read+write) MSHR hits (Count)
system.cpu0.icache.overallMshrHits::cpu0.inst          298                       # number of overall MSHR hits (Count)
system.cpu0.icache.overallMshrHits::total          298                       # number of overall MSHR hits (Count)
system.cpu0.icache.demandMshrMisses::cpu0.inst          699                       # number of demand (read+write) MSHR misses (Count)
system.cpu0.icache.demandMshrMisses::total          699                       # number of demand (read+write) MSHR misses (Count)
system.cpu0.icache.overallMshrMisses::cpu0.inst          699                       # number of overall MSHR misses (Count)
system.cpu0.icache.overallMshrMisses::total          699                       # number of overall MSHR misses (Count)
system.cpu0.icache.demandMshrMissLatency::cpu0.inst     61092511                       # number of demand (read+write) MSHR miss ticks (Tick)
system.cpu0.icache.demandMshrMissLatency::total     61092511                       # number of demand (read+write) MSHR miss ticks (Tick)
system.cpu0.icache.overallMshrMissLatency::cpu0.inst     61092511                       # number of overall MSHR miss ticks (Tick)
system.cpu0.icache.overallMshrMissLatency::total     61092511                       # number of overall MSHR miss ticks (Tick)
system.cpu0.icache.demandMshrMissRate::cpu0.inst     0.000055                       # mshr miss ratio for demand accesses (Ratio)
system.cpu0.icache.demandMshrMissRate::total     0.000055                       # mshr miss ratio for demand accesses (Ratio)
system.cpu0.icache.overallMshrMissRate::cpu0.inst     0.000055                       # mshr miss ratio for overall accesses (Ratio)
system.cpu0.icache.overallMshrMissRate::total     0.000055                       # mshr miss ratio for overall accesses (Ratio)
system.cpu0.icache.demandAvgMshrMissLatency::cpu0.inst 87399.872675                       # average overall mshr miss latency ((Tick/Count))
system.cpu0.icache.demandAvgMshrMissLatency::total 87399.872675                       # average overall mshr miss latency ((Tick/Count))
system.cpu0.icache.overallAvgMshrMissLatency::cpu0.inst 87399.872675                       # average overall mshr miss latency ((Tick/Count))
system.cpu0.icache.overallAvgMshrMissLatency::total 87399.872675                       # average overall mshr miss latency ((Tick/Count))
system.cpu0.icache.replacements                   205                       # number of replacements (Count)
system.cpu0.icache.ReadReq.hits::cpu0.inst     12619846                       # number of ReadReq hits (Count)
system.cpu0.icache.ReadReq.hits::total       12619846                       # number of ReadReq hits (Count)
system.cpu0.icache.ReadReq.misses::cpu0.inst          997                       # number of ReadReq misses (Count)
system.cpu0.icache.ReadReq.misses::total          997                       # number of ReadReq misses (Count)
system.cpu0.icache.ReadReq.missLatency::cpu0.inst     82159423                       # number of ReadReq miss ticks (Tick)
system.cpu0.icache.ReadReq.missLatency::total     82159423                       # number of ReadReq miss ticks (Tick)
system.cpu0.icache.ReadReq.accesses::cpu0.inst     12620843                       # number of ReadReq accesses(hits+misses) (Count)
system.cpu0.icache.ReadReq.accesses::total     12620843                       # number of ReadReq accesses(hits+misses) (Count)
system.cpu0.icache.ReadReq.missRate::cpu0.inst     0.000079                       # miss rate for ReadReq accesses (Ratio)
system.cpu0.icache.ReadReq.missRate::total     0.000079                       # miss rate for ReadReq accesses (Ratio)
system.cpu0.icache.ReadReq.avgMissLatency::cpu0.inst 82406.642929                       # average ReadReq miss latency ((Tick/Count))
system.cpu0.icache.ReadReq.avgMissLatency::total 82406.642929                       # average ReadReq miss latency ((Tick/Count))
system.cpu0.icache.ReadReq.mshrHits::cpu0.inst          298                       # number of ReadReq MSHR hits (Count)
system.cpu0.icache.ReadReq.mshrHits::total          298                       # number of ReadReq MSHR hits (Count)
system.cpu0.icache.ReadReq.mshrMisses::cpu0.inst          699                       # number of ReadReq MSHR misses (Count)
system.cpu0.icache.ReadReq.mshrMisses::total          699                       # number of ReadReq MSHR misses (Count)
system.cpu0.icache.ReadReq.mshrMissLatency::cpu0.inst     61092511                       # number of ReadReq MSHR miss ticks (Tick)
system.cpu0.icache.ReadReq.mshrMissLatency::total     61092511                       # number of ReadReq MSHR miss ticks (Tick)
system.cpu0.icache.ReadReq.mshrMissRate::cpu0.inst     0.000055                       # mshr miss rate for ReadReq accesses (Ratio)
system.cpu0.icache.ReadReq.mshrMissRate::total     0.000055                       # mshr miss rate for ReadReq accesses (Ratio)
system.cpu0.icache.ReadReq.avgMshrMissLatency::cpu0.inst 87399.872675                       # average ReadReq mshr miss latency ((Tick/Count))
system.cpu0.icache.ReadReq.avgMshrMissLatency::total 87399.872675                       # average ReadReq mshr miss latency ((Tick/Count))
system.cpu0.icache.power_state.pwrStateResidencyTicks::UNDEFINED  77300916039                       # Cumulative time (in ticks) in various power states (Tick)
system.cpu0.icache.tags.tagsInUse          434.899580                       # Average ticks per tags in use ((Tick/Count))
system.cpu0.icache.tags.totalRefs            12620545                       # Total number of references to valid blocks. (Count)
system.cpu0.icache.tags.sampledRefs               699                       # Sample count of references to valid blocks. (Count)
system.cpu0.icache.tags.avgRefs          18055.143062                       # Average number of references to valid blocks. ((Count/Count))
system.cpu0.icache.tags.warmupTick              92241                       # The tick when the warmup percentage was hit. (Tick)
system.cpu0.icache.tags.occupancies::cpu0.inst   434.899580                       # Average occupied blocks per tick, per requestor ((Count/Tick))
system.cpu0.icache.tags.avgOccs::cpu0.inst     0.849413                       # Average percentage of cache occupancy ((Ratio/Tick))
system.cpu0.icache.tags.avgOccs::total       0.849413                       # Average percentage of cache occupancy ((Ratio/Tick))
system.cpu0.icache.tags.occupanciesTaskId::1024          494                       # Occupied blocks per task id (Count)
system.cpu0.icache.tags.ageTaskId_1024::0          118                       # Occupied blocks per task id, per block age (Count)
[...]
system.mem_ctrls.dram.perBankWrBursts::13        28510                       # Per bank write bursts (Count)
system.mem_ctrls.dram.perBankWrBursts::14        28499                       # Per bank write bursts (Count)
system.mem_ctrls.dram.perBankWrBursts::15        28405                       # Per bank write bursts (Count)
system.mem_ctrls.dram.totQLat             32396571293                       # Total ticks spent queuing (Tick)
system.mem_ctrls.dram.totBusLat            6129200000                       # Total ticks spent in databus transfers (Tick)
system.mem_ctrls.dram.totMemAccLat        55381071293                       # Total ticks spent from burst creation until serviced by the DRAM (Tick)
system.mem_ctrls.dram.avgQLat                26428.06                       # Average queueing delay per DRAM burst ((Tick/Count))
system.mem_ctrls.dram.avgBusLat               5000.00                       # Average bus latency per DRAM burst ((Tick/Count))
system.mem_ctrls.dram.avgMemAccLat           45178.06                       # Average memory access latency per DRAM burst ((Tick/Count))
system.mem_ctrls.dram.readRowHits              700781                       # Number of row buffer hits during reads (Count)
system.mem_ctrls.dram.writeRowHits             250572                       # Number of row buffer hits during writes (Count)
system.mem_ctrls.dram.readRowHitRate            57.17                       # Row buffer hit rate for reads (Ratio)
system.mem_ctrls.dram.writeRowHitRate           54.94                       # Row buffer hit rate for writes (Ratio)
system.mem_ctrls.dram.bytesPerActivate::samples       730541                       # Bytes accessed per row activation (Byte)
system.mem_ctrls.dram.bytesPerActivate::mean   147.342772                       # Bytes accessed per row activation (Byte)
system.mem_ctrls.dram.bytesPerActivate::gmean    93.682006                       # Bytes accessed per row activation (Byte)
system.mem_ctrls.dram.bytesPerActivate::stdev   213.678986                       # Bytes accessed per row activation (Byte)
system.mem_ctrls.dram.bytesPerActivate::0-127       548305     75.05%     75.05% # Bytes accessed per row activation (Byte)
system.mem_ctrls.dram.bytesPerActivate::128-255        82212     11.25%     86.31% # Bytes accessed per row activation (Byte)
system.mem_ctrls.dram.bytesPerActivate::256-383        27254      3.73%     90.04% # Bytes accessed per row activation (Byte)
system.mem_ctrls.dram.bytesPerActivate::384-511        16597      2.27%     92.31% # Bytes accessed per row activation (Byte)
system.mem_ctrls.dram.bytesPerActivate::512-639        11262      1.54%     93.85% # Bytes accessed per row activation (Byte)
system.mem_ctrls.dram.bytesPerActivate::640-767        11648      1.59%     95.45% # Bytes accessed per row activation (Byte)
system.mem_ctrls.dram.bytesPerActivate::768-895         5521      0.76%     96.20% # Bytes accessed per row activation (Byte)
system.mem_ctrls.dram.bytesPerActivate::896-1023         3677      0.50%     96.71% # Bytes accessed per row activation (Byte)
system.mem_ctrls.dram.bytesPerActivate::1024-1151        24065      3.29%    100.00% # Bytes accessed per row activation (Byte)
system.mem_ctrls.dram.bytesPerActivate::total       730541                       # Bytes accessed per row activation (Byte)
system.mem_ctrls.dram.bytesRead              78453760                       # Total bytes read (Byte)
system.mem_ctrls.dram.bytesWritten           29188288                       # Total bytes written (Byte)
system.mem_ctrls.dram.avgRdBW             1014.913717                       # Average DRAM read bandwidth in MiBytes/s ((Byte/Second))
system.mem_ctrls.dram.avgWrBW              377.593042                       # Average DRAM write bandwidth in MiBytes/s ((Byte/Second))
system.mem_ctrls.dram.peakBW                 12800.00                       # Theoretical peak bandwidth in MiByte/s ((Byte/Second))
system.mem_ctrls.dram.busUtil                   10.88                       # Data bus utilization in percentage (Ratio)
system.mem_ctrls.dram.busUtilRead                7.93                       # Data bus utilization in percentage for reads (Ratio)
system.mem_ctrls.dram.busUtilWrite               2.95                       # Data bus utilization in percentage for writes (Ratio)
system.mem_ctrls.dram.pageHitRate               56.56                       # Row buffer hit rate, read and write combined (Ratio)
system.mem_ctrls.dram.power_state.pwrStateResidencyTicks::UNDEFINED  77300916039                       # Cumulative time (in ticks) in various power states (Tick)
system.mem_ctrls.dram.rank0.actEnergy      2612433180                       # Energy for activate commands per rank (pJ) (Joule)
system.mem_ctrls.dram.rank0.preEnergy      1388518395                       # Energy for precharge commands per rank (pJ) (Joule)
system.mem_ctrls.dram.rank0.readEnergy     4376127420                       # Energy for read commands per rank (pJ) (Joule)
system.mem_ctrls.dram.rank0.writeEnergy    1191960900                       # Energy for write commands per rank (pJ) (Joule)
system.mem_ctrls.dram.rank0.refreshEnergy 6101531280.000001                       # Energy for refresh commands per rank (pJ) (Joule)
system.mem_ctrls.dram.rank0.actBackEnergy  24293338440                       # Energy for active background per rank (pJ) (Joule)
system.mem_ctrls.dram.rank0.preBackEnergy   9226003680                       # Energy for precharge background per rank (pJ) (Joule)
system.mem_ctrls.dram.rank0.actPowerDownEnergy            0                       # Energy for active power-down per rank (pJ) (Joule)
system.mem_ctrls.dram.rank0.prePowerDownEnergy            0                       # Energy for precharge power-down per rank (pJ) (Joule)
system.mem_ctrls.dram.rank0.selfRefreshEnergy            0                       # Energy for self refresh per rank (pJ) (Joule)
system.mem_ctrls.dram.rank0.totalEnergy   49189913295                       # Total energy per rank (pJ) (Joule)
system.mem_ctrls.dram.rank0.averagePower   636.343213                       # Core power per rank (mW) (Watt)
system.mem_ctrls.dram.rank0.totalIdleTime            0                       # Total Idle time Per DRAM Rank (Tick)
system.mem_ctrls.dram.rank0.pwrStateTime::IDLE  23644921850                       # Time in different power states (Tick)
system.mem_ctrls.dram.rank0.pwrStateTime::REF   2581020000                       # Time in different power states (Tick)
system.mem_ctrls.dram.rank0.pwrStateTime::SREF            0                       # Time in different power states (Tick)
system.mem_ctrls.dram.rank0.pwrStateTime::PRE_PDN            0                       # Time in different power states (Tick)
system.mem_ctrls.dram.rank0.pwrStateTime::ACT  51074974189                       # Time in different power states (Tick)
system.mem_ctrls.dram.rank0.pwrStateTime::ACT_PDN            0                       # Time in different power states (Tick)
system.mem_ctrls.dram.rank1.actEnergy      2603722380                       # Energy for activate commands per rank (pJ) (Joule)
system.mem_ctrls.dram.rank1.preEnergy      1383884700                       # Energy for precharge commands per rank (pJ) (Joule)
system.mem_ctrls.dram.rank1.readEnergy     4376370180                       # Energy for read commands per rank (pJ) (Joule)
system.mem_ctrls.dram.rank1.writeEnergy    1188708840                       # Energy for write commands per rank (pJ) (Joule)
system.mem_ctrls.dram.rank1.refreshEnergy 6101531280.000001                       # Energy for refresh commands per rank (pJ) (Joule)
system.mem_ctrls.dram.rank1.actBackEnergy  24356243640                       # Energy for active background per rank (pJ) (Joule)
system.mem_ctrls.dram.rank1.preBackEnergy   9173030880                       # Energy for precharge background per rank (pJ) (Joule)
system.mem_ctrls.dram.rank1.actPowerDownEnergy            0                       # Energy for active power-down per rank (pJ) (Joule)
system.mem_ctrls.dram.rank1.prePowerDownEnergy            0                       # Energy for precharge power-down per rank (pJ) (Joule)
system.mem_ctrls.dram.rank1.selfRefreshEnergy            0                       # Energy for self refresh per rank (pJ) (Joule)
system.mem_ctrls.dram.rank1.totalEnergy   49183491900                       # Total energy per rank (pJ) (Joule)
system.mem_ctrls.dram.rank1.averagePower   636.260143                       # Core power per rank (mW) (Watt)
system.mem_ctrls.dram.rank1.totalIdleTime            0                       # Total Idle time Per DRAM Rank (Tick)
system.mem_ctrls.dram.rank1.pwrStateTime::IDLE  23508090208                       # Time in different power states (Tick)
system.mem_ctrls.dram.rank1.pwrStateTime::REF   2581020000                       # Time in different power states (Tick)
system.mem_ctrls.dram.rank1.pwrStateTime::SREF            0                       # Time in different power states (Tick)
system.mem_ctrls.dram.rank1.pwrStateTime::PRE_PDN            0                       # Time in different power states (Tick)
system.mem_ctrls.dram.rank1.pwrStateTime::ACT  51211805831                       # Time in different power states (Tick)
system.mem_ctrls.dram.rank1.pwrStateTime::ACT_PDN            0                       # Time in different power states (Tick)
system.mem_ctrls.power_state.pwrStateResidencyTicks::UNDEFINED  77300916039                       # Cumulative time (in ticks) in various power states (Tick)
system.membus.transDist::ReadResp              698473                       # Transaction distribution (Count)
system.membus.transDist::WritebackDirty        456082                       # Transaction distribution (Count)
system.membus.transDist::CleanEvict            640469                       # Transaction distribution (Count)
system.membus.transDist::UpgradeReq              3984                       # Transaction distribution (Count)
system.membus.transDist::SCUpgradeReq              43                       # Transaction distribution (Count)
system.membus.transDist::ReadExReq             529592                       # Transaction distribution (Count)
system.membus.transDist::ReadExResp            529566                       # Transaction distribution (Count)
system.membus.transDist::ReadSharedReq         698473                       # Transaction distribution (Count)
system.membus.transDist::InvalidateReq             32                       # Transaction distribution (Count)
system.membus.pktCount_system.l3.mem_side_port::system.mem_ctrls.port      3556714                       # Packet count per connected requestor and responder (Count)
system.membus.pktCount::total                 3556714                       # Packet count per connected requestor and responder (Count)
system.membus.pktSize_system.l3.mem_side_port::system.mem_ctrls.port    107783744                       # Cumulative packet size per connected requestor and responder (Byte)
system.membus.pktSize::total                107783744                       # Cumulative packet size per connected requestor and responder (Byte)
system.membus.snoops                             4049                       # Total snoops (Count)
system.membus.snoopTraffic                          0                       # Total snoop traffic (Byte)
system.membus.snoopFanout::samples            1232124                       # Request fanout histogram (Count)
system.membus.snoopFanout::mean                     0                       # Request fanout histogram (Count)
system.membus.snoopFanout::stdev                    0                       # Request fanout histogram (Count)
system.membus.snoopFanout::underflows               0      0.00%      0.00% # Request fanout histogram (Count)
system.membus.snoopFanout::0                  1232124    100.00%    100.00% # Request fanout histogram (Count)
system.membus.snoopFanout::1                        0      0.00%    100.00% # Request fanout histogram (Count)
system.membus.snoopFanout::overflows                0      0.00%    100.00% # Request fanout histogram (Count)
system.membus.snoopFanout::min_value                0                       # Request fanout histogram (Count)
system.membus.snoopFanout::max_value                0                       # Request fanout histogram (Count)
system.membus.snoopFanout::total              1232124                       # Request fanout histogram (Count)
system.membus.power_state.pwrStateResidencyTicks::UNDEFINED  77300916039                       # Cumulative time (in ticks) in various power states (Tick)
system.membus.reqLayer0.occupancy          5096402479                       # Layer occupancy (ticks) (Tick)
system.membus.reqLayer0.utilization               0.1                       # Layer utilization (Ratio)
system.membus.respLayer1.occupancy         6617368726                       # Layer occupancy (ticks) (Tick)
system.membus.respLayer1.utilization              0.1                       # Layer utilization (Ratio)
system.membus.snoop_filter.totRequests        2328675                       # Total number of requests made to the snoop filter. (Count)
system.membus.snoop_filter.hitSingleRequests      1103609                       # Number of requests hitting in the snoop filter with a single holder of the requested data. (Count)
system.membus.snoop_filter.hitMultiRequests            0                       # Number of requests hitting in the snoop filter with multiple (>1) holders of the requested data. (Count)
system.membus.snoop_filter.totSnoops                0                       # Total number of snoops made to the snoop filter. (Count)
system.membus.snoop_filter.hitSingleSnoops            0                       # Number of snoops hitting in the snoop filter with a single holder of the requested data. (Count)
system.membus.snoop_filter.hitMultiSnoops            0                       # Number of snoops hitting in the snoop filter with multiple (>1) holders of the requested data. (Count)
system.tol3bus.transDist::ReadResp             785794                       # Transaction distribution (Count)
system.tol3bus.transDist::WritebackDirty      1000377                       # Transaction distribution (Count)
system.tol3bus.transDist::CleanEvict          1540375                       # Transaction distribution (Count)
system.tol3bus.transDist::UpgradeReq             4376                       # Transaction distribution (Count)
system.tol3bus.transDist::SCUpgradeReq             44                       # Transaction distribution (Count)
system.tol3bus.transDist::UpgradeResp            4420                       # Transaction distribution (Count)
system.tol3bus.transDist::ReadExReq            529801                       # Transaction distribution (Count)
system.tol3bus.transDist::ReadExResp           529801                       # Transaction distribution (Count)
system.tol3bus.transDist::ReadSharedReq        785794                       # Transaction distribution (Count)
system.tol3bus.transDist::InvalidateReq            69                       # Transaction distribution (Count)
system.tol3bus.transDist::InvalidateResp           69                       # Transaction distribution (Count)
system.tol3bus.pktCount_system.cpu0.l2cache.mem_side_port::system.l3.cpu_side_port      1929738                       # Packet count per connected requestor and responder (Count)
system.tol3bus.pktCount_system.cpu1.l2cache.mem_side_port::system.l3.cpu_side_port      1920915                       # Packet count per connected requestor and responder (Count)
system.tol3bus.pktCount::total                3850653                       # Packet count per connected requestor and responder (Count)
system.tol3bus.pktSize_system.cpu0.l2cache.mem_side_port::system.l3.cpu_side_port     58786304                       # Cumulative packet size per connected requestor and responder (Byte)
system.tol3bus.pktSize_system.cpu1.l2cache.mem_side_port::system.l3.cpu_side_port     58482240                       # Cumulative packet size per connected requestor and responder (Byte)
system.tol3bus.pktSize::total               117268544                       # Cumulative packet size per connected requestor and responder (Byte)
system.tol3bus.snoops                         1330267                       # Total snoops (Count)
system.tol3bus.snoopTraffic                  30953664                       # Total snoop traffic (Byte)
system.tol3bus.snoopFanout::samples           2618759                       # Request fanout histogram (Count)
system.tol3bus.snoopFanout::mean             0.144137                       # Request fanout histogram (Count)
system.tol3bus.snoopFanout::stdev            0.357009                       # Request fanout histogram (Count)
system.tol3bus.snoopFanout::underflows              0      0.00%      0.00% # Request fanout histogram (Count)
system.tol3bus.snoopFanout::0                 2246659     85.79%     85.79% # Request fanout histogram (Count)
system.tol3bus.snoopFanout::1                  366740     14.00%     99.80% # Request fanout histogram (Count)
system.tol3bus.snoopFanout::2                    5360      0.20%    100.00% # Request fanout histogram (Count)
system.tol3bus.snoopFanout::overflows               0      0.00%    100.00% # Request fanout histogram (Count)
system.tol3bus.snoopFanout::min_value               0                       # Request fanout histogram (Count)
system.tol3bus.snoopFanout::max_value               2                       # Request fanout histogram (Count)
system.tol3bus.snoopFanout::total             2618759                       # Request fanout histogram (Count)
system.tol3bus.power_state.pwrStateResidencyTicks::UNDEFINED  77300916039                       # Cumulative time (in ticks) in various power states (Tick)
system.tol3bus.reqLayer0.occupancy         1215704401                       # Layer occupancy (ticks) (Tick)
system.tol3bus.reqLayer0.utilization              0.0                       # Layer utilization (Ratio)
system.tol3bus.respLayer0.occupancy         658615916                       # Layer occupancy (ticks) (Tick)
system.tol3bus.respLayer0.utilization             0.0                       # Layer utilization (Ratio)
system.tol3bus.respLayer1.occupancy         657252615                       # Layer occupancy (ticks) (Tick)
system.tol3bus.respLayer1.utilization             0.0                       # Layer utilization (Ratio)
system.tol3bus.snoop_filter.totRequests       2562161                       # Total number of requests made to the snoop filter. (Count)
system.tol3bus.snoop_filter.hitSingleRequests      1246336                       # Number of requests hitting in the snoop filter with a single holder of the requested data. (Count)
system.tol3bus.snoop_filter.hitMultiRequests        31205                       # Number of requests hitting in the snoop filter with multiple (>1) holders of the requested data. (Count)
system.tol3bus.snoop_filter.totSnoops          336643                       # Total number of snoops made to the snoop filter. (Count)
system.tol3bus.snoop_filter.hitSingleSnoops       331283                       # Number of snoops hitting in the snoop filter with a single holder of the requested data. (Count)
system.tol3bus.snoop_filter.hitMultiSnoops         5360                       # Number of snoops hitting in the snoop filter with multiple (>1) holders of the requested data. (Count)
system.voltage_domain.voltage                       1                       # Voltage in Volts (Volt)
system.workload.inst.arm                            0                       # number of arm instructions executed (Count)
system.workload.inst.quiesce                        0                       # number of quiesce instructions executed (Count)

---------- End Simulation Statistics   ----------
