
---------- Begin Simulation Statistics ----------
simSeconds                                   0.067259                       # Number of seconds simulated (Second)
simTicks                                  67259374299                       # Number of ticks simulated (Tick)
finalTick                                 67259374299                       # Number of ticks from beginning of simulation (restored from checkpoints and never reset) (Tick)
simFreq                                  1000000000000                       # The number of ticks per simulated second ((Tick/Second))
hostSeconds                                   1217.28                       # Real time elapsed on the host (Second)
hostTickRate                                 55253607                       # The number of ticks simulated per host second (ticks/s) ((Tick/Second))
hostMemory                                     808212                       # Number of bytes of host memory used (Byte)
simInsts                                    254224719                       # Number of instructions simulated (Count)
simOps                                      438136005                       # Number of ops (including micro ops) simulated (Count)
hostInstRate                                   208846                       # Simulator instruction rate (inst/s) ((Count/Second))
hostOpRate                                     359929                       # Simulator op (including micro ops) rate (op/s) ((Count/Second))
system.clk_domain.clock                          1000                       # Clock period in ticks (Tick)
system.cpu0.numCycles                       201782876                       # Number of cpu cycles simulated (Cycle)
system.cpu0.numWorkItemsStarted                     0                       # Number of work items this cpu started (Count)
system.cpu0.numWorkItemsCompleted                   0                       # Number of work items this cpu completed (Count)
system.cpu0.instsAdded                      219915006                       # Number of instructions added to the IQ (excludes non-spec) (Count)
system.cpu0.nonSpecInstsAdded                    1602                       # Number of non-speculative instructions added to the IQ (Count)
system.cpu0.instsIssued                     219743975                       # Number of instructions issued (Count)
system.cpu0.squashedInstsIssued                  3042                       # Number of squashed instructions issued (Count)
system.cpu0.squashedInstsExamined              659148                       # Number of squashed instructions iterated over during squash; mainly for profiling (Count)
system.cpu0.squashedOperandsExamined           813487                       # Number of squashed operands that are examined and possibly removed from graph (Count)
system.cpu0.squashedNonSpecRemoved                672                       # Number of squashed non-spec instructions that were removed (Count)
system.cpu0.numIssuedDist::samples          201543373                       # Number of insts issued each cycle (Count)
system.cpu0.numIssuedDist::mean              1.090306                       # Number of insts issued each cycle (Count)
system.cpu0.numIssuedDist::stdev             1.442782                       # Number of insts issued each cycle (Count)
system.cpu0.numIssuedDist::underflows               0      0.00%      0.00% # Number of insts issued each cycle (Count)
system.cpu0.numIssuedDist::0                100770139     50.00%     50.00% # Number of insts issued each cycle (Count)
system.cpu0.numIssuedDist::1                 37212260     18.46%     68.46% # Number of insts issued each cycle (Count)
system.cpu0.numIssuedDist::2                 34873023     17.30%     85.77% # Number of insts issued each cycle (Count)
system.cpu0.numIssuedDist::3                 14316596      7.10%     92.87% # Number of insts issued each cycle (Count)
system.cpu0.numIssuedDist::4                  6653829      3.30%     96.17% # Number of insts issued each cycle (Count)
system.cpu0.numIssuedDist::5                  4349982      2.16%     98.33% # Number of insts issued each cycle (Count)
system.cpu0.numIssuedDist::6                  2441494      1.21%     99.54% # Number of insts issued each cycle (Count)
system.cpu0.numIssuedDist::7                   586709      0.29%     99.83% # Number of insts issued each cycle (Count)
system.cpu0.numIssuedDist::8                   339341      0.17%    100.00% # Number of insts issued each cycle (Count)
system.cpu0.numIssuedDist::overflows                0      0.00%    100.00% # Number of insts issued each cycle (Count)
system.cpu0.numIssuedDist::min_value                0                       # Number of insts issued each cycle (Count)
system.cpu0.numIssuedDist::max_value                8                       # Number of insts issued each cycle (Count)
system.cpu0.numIssuedDist::total            201543373                       # Number of insts issued each cycle (Count)
system.cpu0.statFuBusy::No_OpClass                  0      0.00%      0.00% # attempts to use FU when none available (Count)
system.cpu0.statFuBusy::IntAlu                 375481     99.25%     99.25% # attempts to use FU when none available (Count)
system.cpu0.statFuBusy::IntMult                     0      0.00%     99.25% # attempts to use FU when none available (Count)
system.cpu0.statFuBusy::IntDiv                      0      0.00%     99.25% # attempts to use FU when none available (Count)
system.cpu0.statFuBusy::FloatAdd                    0      0.00%     99.25% # attempts to use FU when none available (Count)
system.cpu0.statFuBusy::FloatCmp                    0      0.00%     99.25% # attempts to use FU when none available (Count)
system.cpu0.statFuBusy::FloatCvt                    0      0.00%     99.25% # attempts to use FU when none available (Count)
system.cpu0.statFuBusy::FloatMult                   0      0.00%     99.25% # attempts to use FU when none available (Count)
system.cpu0.statFuBusy::FloatMultAcc                0      0.00%     99.25% # attempts to use FU when none available (Count)
system.cpu0.statFuBusy::FloatDiv                    0      0.00%     99.25% # attempts to use FU when none available (Count)
system.cpu0.statFuBusy::FloatMisc                   0      0.00%     99.25% # attempts to use FU when none available (Count)
system.cpu0.statFuBusy::FloatSqrt                   0      0.00%     99.25% # attempts to use FU when none available (Count)
system.cpu0.statFuBusy::SimdAdd                     0      0.00%     99.25% # attempts to use FU when none available (Count)
system.cpu0.statFuBusy::SimdAddAcc                  0      0.00%     99.25% # attempts to use FU when none available (Count)
system.cpu0.statFuBusy::SimdAlu                    44      0.01%     99.26% # attempts to use FU when none available (Count)
system.cpu0.statFuBusy::SimdCmp                     0      0.00%     99.26% # attempts to use FU when none available (Count)
system.cpu0.statFuBusy::SimdCvt                    68      0.02%     99.28% # attempts to use FU when none available (Count)
system.cpu0.statFuBusy::SimdMisc                    3      0.00%     99.28% # attempts to use FU when none available (Count)
system.cpu0.statFuBusy::SimdMult                    0      0.00%     99.28% # attempts to use FU when none available (Count)
system.cpu0.statFuBusy::SimdMultAcc                 0      0.00%     99.28% # attempts to use FU when none available (Count)
system.cpu0.statFuBusy::SimdShift                  10      0.00%     99.29% # attempts to use FU when none available (Count)
system.cpu0.statFuBusy::SimdShiftAcc                0      0.00%     99.29% # attempts to use FU when none available (Count)
system.cpu0.statFuBusy::SimdDiv                     0      0.00%     99.29% # attempts to use FU when none available (Count)
system.cpu0.statFuBusy::SimdSqrt                    0      0.00%     99.29% # attempts to use FU when none available (Count)
system.cpu0.statFuBusy::SimdFloatAdd                0      0.00%     99.29% # attempts to use FU when none available (Count)
system.cpu0.statFuBusy::SimdFloatAlu                0      0.00%     99.29% # attempts to use FU when none available (Count)
system.cpu0.statFuBusy::SimdFloatCmp                0      0.00%     99.29% # attempts to use FU when none available (Count)
system.cpu0.statFuBusy::SimdFloatCvt                0      0.00%     99.29% # attempts to use FU when none available (Count)
system.cpu0.statFuBusy::SimdFloatDiv                0      0.00%     99.29% # attempts to use FU when none available (Count)
system.cpu0.statFuBusy::SimdFloatMisc               0      0.00%     99.29% # attempts to use FU when none available (Count)
system.cpu0.statFuBusy::SimdFloatMult               0      0.00%     99.29% # attempts to use FU when none available (Count)
system.cpu0.statFuBusy::SimdFloatMultAcc            0      0.00%     99.29% # attempts to use FU when none available (Count)
system.cpu0.statFuBusy::SimdFloatSqrt               0      0.00%     99.29% # attempts to use FU when none available (Count)
system.cpu0.statFuBusy::SimdReduceAdd               0      0.00%     99.29% # attempts to use FU when none available (Count)
system.cpu0.statFuBusy::SimdReduceAlu               0      0.00%     99.29% # attempts to use FU when none available (Count)
system.cpu0.statFuBusy::SimdReduceCmp               0      0.00%     99.29% # attempts to use FU when none available (Count)
system.cpu0.statFuBusy::SimdFloatReduceAdd            0      0.00%     99.29% # attempts to use FU when none available (Count)
system.cpu0.statFuBusy::SimdFloatReduceCmp            0      0.00%     99.29% # attempts to use FU when none available (Count)
system.cpu0.statFuBusy::SimdAes                     0      0.00%     99.29% # attempts to use FU when none available (Count)
system.cpu0.statFuBusy::SimdAesMix                  0      0.00%     99.29% # attempts to use FU when none available (Count)
system.cpu0.statFuBusy::SimdSha1Hash                0      0.00%     99.29% # attempts to use FU when none available (Count)
system.cpu0.statFuBusy::SimdSha1Hash2               0      0.00%     99.29% # attempts to use FU when none available (Count)
system.cpu0.statFuBusy::SimdSha256Hash              0      0.00%     99.29% # attempts to use FU when none available (Count)
system.cpu0.statFuBusy::SimdSha256Hash2             0      0.00%     99.29% # attempts to use FU when none available (Count)
system.cpu0.statFuBusy::SimdShaSigma2               0      0.00%     99.29% # attempts to use FU when none available (Count)
system.cpu0.statFuBusy::SimdShaSigma3               0      0.00%     99.29% # attempts to use FU when none available (Count)
system.cpu0.statFuBusy::SimdPredAlu                 0      0.00%     99.29% # attempts to use FU when none available (Count)
system.cpu0.statFuBusy::MemRead                  1610      0.43%     99.71% # attempts to use FU when none available (Count)
system.cpu0.statFuBusy::MemWrite                  868      0.23%     99.94% # attempts to use FU when none available (Count)
system.cpu0.statFuBusy::FloatMemRead              115      0.03%     99.97% # attempts to use FU when none available (Count)
system.cpu0.statFuBusy::FloatMemWrite             107      0.03%    100.00% # attempts to use FU when none available (Count)
system.cpu0.statFuBusy::IprAccess                   0      0.00%    100.00% # attempts to use FU when none available (Count)
system.cpu0.statFuBusy::InstPrefetch                0      0.00%    100.00% # attempts to use FU when none available (Count)
system.cpu0.statIssuedInstType_0::No_OpClass      2108087      0.96%      0.96% # Number of instructions issued per FU type, per thread (Count)
system.cpu0.statIssuedInstType_0::IntAlu     89432143     40.70%     41.66% # Number of instructions issued per FU type, per thread (Count)
system.cpu0.statIssuedInstType_0::IntMult          121      0.00%     41.66% # Number of instructions issued per FU type, per thread (Count)
system.cpu0.statIssuedInstType_0::IntDiv         2406      0.00%     41.66% # Number of instructions issued per FU type, per thread (Count)
system.cpu0.statIssuedInstType_0::FloatAdd      6298711      2.87%     44.53% # Number of instructions issued per FU type, per thread (Count)
system.cpu0.statIssuedInstType_0::FloatCmp            0      0.00%     44.53% # Number of instructions issued per FU type, per thread (Count)
system.cpu0.statIssuedInstType_0::FloatCvt          212      0.00%     44.53% # Number of instructions issued per FU type, per thread (Count)
system.cpu0.statIssuedInstType_0::FloatMult            0      0.00%     44.53% # Number of instructions issued per FU type, per thread (Count)
system.cpu0.statIssuedInstType_0::FloatMultAcc            0      0.00%     44.53% # Number of instructions issued per FU type, per thread (Count)
system.cpu0.statIssuedInstType_0::FloatDiv            0      0.00%     44.53% # Number of instructions issued per FU type, per thread (Count)
system.cpu0.statIssuedInstType_0::FloatMisc            0      0.00%     44.53% # Number of instructions issued per FU type, per thread (Count)
system.cpu0.statIssuedInstType_0::FloatSqrt            0      0.00%     44.53% # Number of instructions issued per FU type, per thread (Count)
system.cpu0.statIssuedInstType_0::SimdAdd         1012      0.00%     44.53% # Number of instructions issued per FU type, per thread (Count)
system.cpu0.statIssuedInstType_0::SimdAddAcc            0      0.00%     44.53% # Number of instructions issued per FU type, per thread (Count)
system.cpu0.statIssuedInstType_0::SimdAlu     17839830      8.12%     52.64% # Number of instructions issued per FU type, per thread (Count)
system.cpu0.statIssuedInstType_0::SimdCmp            0      0.00%     52.64% # Number of instructions issued per FU type, per thread (Count)
system.cpu0.statIssuedInstType_0::SimdCvt         2846      0.00%     52.65% # Number of instructions issued per FU type, per thread (Count)
system.cpu0.statIssuedInstType_0::SimdMisc     17307821      7.88%     60.52% # Number of instructions issued per FU type, per thread (Count)
system.cpu0.statIssuedInstType_0::SimdMult            0      0.00%     60.52% # Number of instructions issued per FU type, per thread (Count)
system.cpu0.statIssuedInstType_0::SimdMultAcc            0      0.00%     60.52% # Number of instructions issued per FU type, per thread (Count)
system.cpu0.statIssuedInstType_0::SimdShift          993      0.00%     60.52% # Number of instructions issued per FU type, per thread (Count)
system.cpu0.statIssuedInstType_0::SimdShiftAcc            0      0.00%     60.52% # Number of instructions issued per FU type, per thread (Count)
system.cpu0.statIssuedInstType_0::SimdDiv            0      0.00%     60.52% # Number of instructions issued per FU type, per thread (Count)
system.cpu0.statIssuedInstType_0::SimdSqrt            0      0.00%     60.52% # Number of instructions issued per FU type, per thread (Count)
system.cpu0.statIssuedInstType_0::SimdFloatAdd     14158867      6.44%     66.97% # Number of instructions issued per FU type, per thread (Count)
system.cpu0.statIssuedInstType_0::SimdFloatAlu            0      0.00%     66.97% # Number of instructions issued per FU type, per thread (Count)
system.cpu0.statIssuedInstType_0::SimdFloatCmp            0      0.00%     66.97% # Number of instructions issued per FU type, per thread (Count)
system.cpu0.statIssuedInstType_0::SimdFloatCvt     17830940      8.11%     75.08% # Number of instructions issued per FU type, per thread (Count)
system.cpu0.statIssuedInstType_0::SimdFloatDiv            0      0.00%     75.08% # Number of instructions issued per FU type, per thread (Count)
system.cpu0.statIssuedInstType_0::SimdFloatMisc            0      0.00%     75.08% # Number of instructions issued per FU type, per thread (Count)
system.cpu0.statIssuedInstType_0::SimdFloatMult     28319761     12.89%     87.97% # Number of instructions issued per FU type, per thread (Count)
system.cpu0.statIssuedInstType_0::SimdFloatMultAcc            0      0.00%     87.97% # Number of instructions issued per FU type, per thread (Count)
system.cpu0.statIssuedInstType_0::SimdFloatSqrt            0      0.00%     87.97% # Number of instructions issued per FU type, per thread (Count)
system.cpu0.statIssuedInstType_0::SimdReduceAdd            0      0.00%     87.97% # Number of instructions issued per FU type, per thread (Count)
system.cpu0.statIssuedInstType_0::SimdReduceAlu            0      0.00%     87.97% # Number of instructions issued per FU type, per thread (Count)
system.cpu0.statIssuedInstType_0::SimdReduceCmp            0      0.00%     87.97% # Number of instructions issued per FU type, per thread (Count)
system.cpu0.statIssuedInstType_0::SimdFloatReduceAdd            0      0.00%     87.97% # Number of instructions issued per FU type, per thread (Count)
system.cpu0.statIssuedInstType_0::SimdFloatReduceCmp            0      0.00%     87.97% # Number of instructions issued per FU type, per thread (Count)
system.cpu0.statIssuedInstType_0::SimdAes            0      0.00%     87.97% # Number of instructions issued per FU type, per thread (Count)
system.cpu0.statIssuedInstType_0::SimdAesMix            0      0.00%     87.97% # Number of instructions issued per FU type, per thread (Count)
system.cpu0.statIssuedInstType_0::SimdSha1Hash            0      0.00%     87.97% # Number of instructions issued per FU type, per thread (Count)
system.cpu0.statIssuedInstType_0::SimdSha1Hash2            0      0.00%     87.97% # Number of instructions issued per FU type, per thread (Count)
system.cpu0.statIssuedInstType_0::SimdSha256Hash            0      0.00%     87.97% # Number of instructions issued per FU type, per thread (Count)
system.cpu0.statIssuedInstType_0::SimdSha256Hash2            0      0.00%     87.97% # Number of instructions issued per FU type, per thread (Count)
system.cpu0.statIssuedInstType_0::SimdShaSigma2            0      0.00%     87.97% # Number of instructions issued per FU type, per thread (Count)
system.cpu0.statIssuedInstType_0::SimdShaSigma3            0      0.00%     87.97% # Number of instructions issued per FU type, per thread (Count)
system.cpu0.statIssuedInstType_0::SimdPredAlu            0      0.00%     87.97% # Number of instructions issued per FU type, per thread (Count)
system.cpu0.statIssuedInstType_0::MemRead     10104819      4.60%     92.57% # Number of instructions issued per FU type, per thread (Count)
system.cpu0.statIssuedInstType_0::MemWrite      7407571      3.37%     95.94% # Number of instructions issued per FU type, per thread (Count)
system.cpu0.statIssuedInstType_0::FloatMemRead      8924938      4.06%    100.00% # Number of instructions issued per FU type, per thread (Count)
system.cpu0.statIssuedInstType_0::FloatMemWrite         2897      0.00%    100.00% # Number of instructions issued per FU type, per thread (Count)
system.cpu0.statIssuedInstType_0::IprAccess            0      0.00%    100.00% # Number of instructions issued per FU type, per thread (Count)
system.cpu0.statIssuedInstType_0::InstPrefetch            0      0.00%    100.00% # Number of instructions issued per FU type, per thread (Count)
system.cpu0.statIssuedInstType_0::total     219743975                       # Number of instructions issued per FU type, per thread (Count)
system.cpu0.issueRate                        1.089012                       # Inst issue rate ((Count/Cycle))
system.cpu0.fuBusy                             378306                       # FU busy when requested (Count)
system.cpu0.fuBusyRate                       0.001722                       # FU busy rate (busy events/executed inst) ((Count/Count))
system.cpu0.intInstQueueReads               361279955                       # Number of integer instruction queue reads (Count)
system.cpu0.intInstQueueWrites               80312541                       # Number of integer instruction queue writes (Count)
system.cpu0.intInstQueueWakeupAccesses       79647724                       # Number of integer instruction queue wakeup accesses (Count)
system.cpu0.fpInstQueueReads                280132716                       # Number of floating instruction queue reads (Count)
system.cpu0.fpInstQueueWrites               140263401                       # Number of floating instruction queue writes (Count)
system.cpu0.fpInstQueueWakeupAccesses       140062607                       # Number of floating instruction queue wakeup accesses (Count)
system.cpu0.vecInstQueueReads                       0                       # Number of vector instruction queue reads (Count)
system.cpu0.vecInstQueueWrites                      0                       # Number of vector instruction queue writes (Count)
system.cpu0.vecInstQueueWakeupAccesses              0                       # Number of vector instruction queue wakeup accesses (Count)
system.cpu0.intAluAccesses                   77947736                       # Number of integer alu accesses (Count)
system.cpu0.fpAluAccesses                   140066458                       # Number of floating point alu accesses (Count)
system.cpu0.vecAluAccesses                          0                       # Number of vector alu accesses (Count)
system.cpu0.numInsts                        219728826                       # Number of executed instructions (Count)
system.cpu0.numLoadInsts                     19025943                       # Number of load instructions executed (Count)
system.cpu0.numSquashedInsts                    15149                       # Number of squashed instructions skipped in execute (Count)
system.cpu0.numSwp                                  0                       # Number of swp insts executed (Count)
system.cpu0.numNop                                  0                       # Number of nop insts executed (Count)
system.cpu0.numRefs                          26435673                       # Number of memory reference insts executed (Count)
system.cpu0.numBranches                       7965378                       # Number of branches executed (Count)
system.cpu0.numStoreInsts                     7409730                       # Number of stores executed (Count)
system.cpu0.numRate                          1.088937                       # Inst execution rate ((Count/Cycle))
system.cpu0.timesIdled                           1241                       # Number of times that the entire CPU went into an idle state and unscheduled itself (Count)
system.cpu0.idleCycles                         239503                       # Total number of cycles that the CPU has spent unscheduled due to idling (Cycle)
system.cpu0.quiesceCycles                      197228                       # Total number of cycles that CPU has spent quiesced or waiting for an interrupt (Cycle)
system.cpu0.committedInsts                  127215525                       # Number of Instructions Simulated (Count)
system.cpu0.committedOps                    219257454                       # Number of Ops (including micro ops) Simulated (Count)
system.cpu0.cpi                              1.586150                       # CPI: Cycles Per Instruction ((Cycle/Count))
system.cpu0.totalCpi                         1.586150                       # CPI: Total CPI of All Threads ((Cycle/Count))
system.cpu0.ipc                              0.630457                       # IPC: Instructions Per Cycle ((Count/Cycle))
system.cpu0.totalIpc                         0.630457                       # IPC: Total IPC of All Threads ((Count/Cycle))
system.cpu0.intRegfileReads                 124028654                       # Number of integer regfile reads (Count)
system.cpu0.intRegfileWrites                 67345232                       # Number of integer regfile writes (Count)
system.cpu0.fpRegfileReads                  274854405                       # Number of floating regfile reads (Count)
system.cpu0.fpRegfileWrites                 131144632                       # Number of floating regfile writes (Count)
system.cpu0.ccRegfileReads                   25155379                       # number of cc regfile reads (Count)
system.cpu0.ccRegfileWrites                  33975909                       # number of cc regfile writes (Count)
system.cpu0.miscRegfileReads                 49214087                       # number of misc regfile reads (Count)
system.cpu0.miscRegfileWrites                     108                       # number of misc regfile writes (Count)
system.cpu0.MemDepUnit__0.insertedLoads      19043088                       # Number of loads inserted to the mem dependence unit. (Count)
system.cpu0.MemDepUnit__0.insertedStores      7419762                       # Number of stores inserted to the mem dependence unit. (Count)
system.cpu0.MemDepUnit__0.conflictingLoads      4614221                       # Number of conflicting loads. (Count)
system.cpu0.MemDepUnit__0.conflictingStores      4109849                       # Number of conflicting stores. (Count)
system.cpu0.MemDepUnit__1.insertedLoads             0                       # Number of loads inserted to the mem dependence unit. (Count)
system.cpu0.MemDepUnit__1.insertedStores            0                       # Number of stores inserted to the mem dependence unit. (Count)
system.cpu0.MemDepUnit__1.conflictingLoads            0                       # Number of conflicting loads. (Count)
system.cpu0.MemDepUnit__1.conflictingStores            0                       # Number of conflicting stores. (Count)
system.cpu0.MemDepUnit__2.insertedLoads             0                       # Number of loads inserted to the mem dependence unit. (Count)
system.cpu0.MemDepUnit__2.insertedStores            0                       # Number of stores inserted to the mem dependence unit. (Count)
system.cpu0.MemDepUnit__2.conflictingLoads            0                       # Number of conflicting loads. (Count)
system.cpu0.MemDepUnit__2.conflictingStores            0                       # Number of conflicting stores. (Count)
system.cpu0.MemDepUnit__3.insertedLoads             0                       # Number of loads inserted to the mem dependence unit. (Count)
system.cpu0.MemDepUnit__3.insertedStores            0                       # Number of stores inserted to the mem dependence unit. (Count)
system.cpu0.MemDepUnit__3.conflictingLoads            0                       # Number of conflicting loads. (Count)
system.cpu0.MemDepUnit__3.conflictingStores            0                       # Number of conflicting stores. (Count)
system.cpu0.branchPred.lookups                8010872                       # Number of BP lookups (Count)
system.cpu0.branchPred.condPredicted          3789960                       # Number of conditional branches predicted (Count)
system.cpu0.branchPred.condIncorrect             7092                       # Number of conditional branches incorrect (Count)
system.cpu0.branchPred.BTBLookups             5844773                       # Number of BTB lookups (Count)
system.cpu0.branchPred.BTBHits                5841724                       # Number of BTB hits (Count)
system.cpu0.branchPred.BTBHitRatio           0.999478                       # BTB Hit Ratio (Ratio)
system.cpu0.branchPred.RASUsed                2102189                       # Number of times the RAS was used to get a target. (Count)
system.cpu0.branchPred.RASIncorrect                 7                       # Number of incorrect RAS predictions. (Count)
system.cpu0.branchPred.indirectLookups           4077                       # Number of indirect predictor lookups. (Count)
system.cpu0.branchPred.indirectHits               539                       # Number of indirect target hits. (Count)
system.cpu0.branchPred.indirectMisses            3538                       # Number of indirect misses. (Count)
system.cpu0.branchPred.indirectMispredicted          616                       # Number of mispredicted indirect branches. (Count)
system.cpu0.commit.commitSquashedInsts         627644                       # The number of squashed insts skipped by commit (Count)
system.cpu0.commit.commitNonSpecStalls            930                       # The number of times commit has been forced to stall to communicate backwards (Count)
system.cpu0.commit.branchMispredicts             6969                       # The number of times a branch was mispredicted (Count)
system.cpu0.commit.numCommittedDist::samples    201456890                       # Number of insts commited each cycle (Count)
system.cpu0.commit.numCommittedDist::mean     1.088359                       # Number of insts commited each cycle (Count)
system.cpu0.commit.numCommittedDist::stdev     1.831594                       # Number of insts commited each cycle (Count)
system.cpu0.commit.numCommittedDist::underflows            0      0.00%      0.00% # Number of insts commited each cycle (Count)
system.cpu0.commit.numCommittedDist::0      106134785     52.68%     52.68% # Number of insts commited each cycle (Count)
system.cpu0.commit.numCommittedDist::1       54697071     27.15%     79.83% # Number of insts commited each cycle (Count)
system.cpu0.commit.numCommittedDist::2       10755935      5.34%     85.17% # Number of insts commited each cycle (Count)
system.cpu0.commit.numCommittedDist::3       13436457      6.67%     91.84% # Number of insts commited each cycle (Count)
system.cpu0.commit.numCommittedDist::4        4911488      2.44%     94.28% # Number of insts commited each cycle (Count)
system.cpu0.commit.numCommittedDist::5        2493708      1.24%     95.52% # Number of insts commited each cycle (Count)
system.cpu0.commit.numCommittedDist::6         528777      0.26%     95.78% # Number of insts commited each cycle (Count)
system.cpu0.commit.numCommittedDist::7         537364      0.27%     96.05% # Number of insts commited each cycle (Count)
system.cpu0.commit.numCommittedDist::8        7961305      3.95%    100.00% # Number of insts commited each cycle (Count)
system.cpu0.commit.numCommittedDist::overflows            0      0.00%    100.00% # Number of insts commited each cycle (Count)
system.cpu0.commit.numCommittedDist::min_value            0                       # Number of insts commited each cycle (Count)
system.cpu0.commit.numCommittedDist::max_value            8                       # Number of insts commited each cycle (Count)
system.cpu0.commit.numCommittedDist::total    201456890                       # Number of insts commited each cycle (Count)
system.cpu0.commit.instsCommitted           127215525                       # Number of instructions committed (Count)
system.cpu0.commit.opsCommitted             219257454                       # Number of ops (including micro ops) committed (Count)
system.cpu0.commit.memRefs                   26345671                       # Number of memory references committed (Count)
system.cpu0.commit.loads                     18962353                       # Number of loads committed (Count)
system.cpu0.commit.amos                             0                       # Number of atomic instructions committed (Count)
system.cpu0.commit.membars                        548                       # Number of memory barriers committed (Count)
system.cpu0.commit.branches                   7934233                       # Number of branches committed (Count)
system.cpu0.commit.vectorInstructions               0                       # Number of committed Vector instructions. (Count)
system.cpu0.commit.floating                 139997701                       # Number of committed floating point instructions. (Count)
system.cpu0.commit.integer                  103378706                       # Number of committed integer instructions. (Count)
system.cpu0.commit.functionCalls              2098800                       # Number of function calls committed. (Count)
system.cpu0.commit.committedInstType_0::No_OpClass      2099792      0.96%      0.96% # Class of committed instruction (Count)
system.cpu0.commit.committedInstType_0::IntAlu     89090531     40.63%     41.59% # Class of committed instruction (Count)
system.cpu0.commit.committedInstType_0::IntMult          101      0.00%     41.59% # Class of committed instruction (Count)
system.cpu0.commit.committedInstType_0::IntDiv         2165      0.00%     41.59% # Class of committed instruction (Count)
system.cpu0.commit.committedInstType_0::FloatAdd      6292131      2.87%     44.46% # Class of committed instruction (Count)
system.cpu0.commit.committedInstType_0::FloatCmp            0      0.00%     44.46% # Class of committed instruction (Count)
system.cpu0.commit.committedInstType_0::FloatCvt          192      0.00%     44.46% # Class of committed instruction (Count)
system.cpu0.commit.committedInstType_0::FloatMult            0      0.00%     44.46% # Class of committed instruction (Count)
system.cpu0.commit.committedInstType_0::FloatMultAcc            0      0.00%     44.46% # Class of committed instruction (Count)
system.cpu0.commit.committedInstType_0::FloatDiv            0      0.00%     44.46% # Class of committed instruction (Count)
system.cpu0.commit.committedInstType_0::FloatMisc            0      0.00%     44.46% # Class of committed instruction (Count)
system.cpu0.commit.committedInstType_0::FloatSqrt            0      0.00%     44.46% # Class of committed instruction (Count)
system.cpu0.commit.committedInstType_0::SimdAdd          732      0.00%     44.46% # Class of committed instruction (Count)
system.cpu0.commit.committedInstType_0::SimdAddAcc            0      0.00%     44.46% # Class of committed instruction (Count)
system.cpu0.commit.committedInstType_0::SimdAlu     17827411      8.13%     52.59% # Class of committed instruction (Count)
system.cpu0.commit.committedInstType_0::SimdCmp            0      0.00%     52.59% # Class of committed instruction (Count)
system.cpu0.commit.committedInstType_0::SimdCvt         1824      0.00%     52.59% # Class of committed instruction (Count)
system.cpu0.commit.committedInstType_0::SimdMisc     17303330      7.89%     60.49% # Class of committed instruction (Count)
system.cpu0.commit.committedInstType_0::SimdMult            0      0.00%     60.49% # Class of committed instruction (Count)
system.cpu0.commit.committedInstType_0::SimdMultAcc            0      0.00%     60.49% # Class of committed instruction (Count)
system.cpu0.commit.committedInstType_0::SimdShift          382      0.00%     60.49% # Class of committed instruction (Count)
system.cpu0.commit.committedInstType_0::SimdShiftAcc            0      0.00%     60.49% # Class of committed instruction (Count)
system.cpu0.commit.committedInstType_0::SimdDiv            0      0.00%     60.49% # Class of committed instruction (Count)
system.cpu0.commit.committedInstType_0::SimdSqrt            0      0.00%     60.49% # Class of committed instruction (Count)
system.cpu0.commit.committedInstType_0::SimdFloatAdd     14155794      6.46%     66.94% # Class of committed instruction (Count)
system.cpu0.commit.committedInstType_0::SimdFloatAlu            0      0.00%     66.94% # Class of committed instruction (Count)
system.cpu0.commit.committedInstType_0::SimdFloatCmp            0      0.00%     66.94% # Class of committed instruction (Count)
system.cpu0.commit.committedInstType_0::SimdFloatCvt     17825821      8.13%     75.07% # Class of committed instruction (Count)
system.cpu0.commit.committedInstType_0::SimdFloatDiv            0      0.00%     75.07% # Class of committed instruction (Count)
system.cpu0.commit.committedInstType_0::SimdFloatMisc            0      0.00%     75.07% # Class of committed instruction (Count)
system.cpu0.commit.committedInstType_0::SimdFloatMult     28311577     12.91%     87.98% # Class of committed instruction (Count)
system.cpu0.commit.committedInstType_0::SimdFloatMultAcc            0      0.00%     87.98% # Class of committed instruction (Count)
system.cpu0.commit.committedInstType_0::SimdFloatSqrt            0      0.00%     87.98% # Class of committed instruction (Count)
system.cpu0.commit.committedInstType_0::SimdReduceAdd            0      0.00%     87.98% # Class of committed instruction (Count)
system.cpu0.commit.committedInstType_0::SimdReduceAlu            0      0.00%     87.98% # Class of committed instruction (Count)
system.cpu0.commit.committedInstType_0::SimdReduceCmp            0      0.00%     87.98% # Class of committed instruction (Count)
system.cpu0.commit.committedInstType_0::SimdFloatReduceAdd            0      0.00%     87.98% # Class of committed instruction (Count)
system.cpu0.commit.committedInstType_0::SimdFloatReduceCmp            0      0.00%     87.98% # Class of committed instruction (Count)
system.cpu0.commit.committedInstType_0::SimdAes            0      0.00%     87.98% # Class of committed instruction (Count)
system.cpu0.commit.committedInstType_0::SimdAesMix            0      0.00%     87.98% # Class of committed instruction (Count)
system.cpu0.commit.committedInstType_0::SimdSha1Hash            0      0.00%     87.98% # Class of committed instruction (Count)
system.cpu0.commit.committedInstType_0::SimdSha1Hash2            0      0.00%     87.98% # Class of committed instruction (Count)
system.cpu0.commit.committedInstType_0::SimdSha256Hash            0      0.00%     87.98% # Class of committed instruction (Count)
system.cpu0.commit.committedInstType_0::SimdSha256Hash2            0      0.00%     87.98% # Class of committed instruction (Count)
system.cpu0.commit.committedInstType_0::SimdShaSigma2            0      0.00%     87.98% # Class of committed instruction (Count)
system.cpu0.commit.committedInstType_0::SimdShaSigma3            0      0.00%     87.98% # Class of committed instruction (Count)
system.cpu0.commit.committedInstType_0::SimdPredAlu            0      0.00%     87.98% # Class of committed instruction (Count)
system.cpu0.commit.committedInstType_0::MemRead     10046997      4.58%     92.57% # Class of committed instruction (Count)
system.cpu0.commit.committedInstType_0::MemWrite      7380913      3.37%     95.93% # Class of committed instruction (Count)
system.cpu0.commit.committedInstType_0::FloatMemRead      8915356      4.07%    100.00% # Class of committed instruction (Count)
system.cpu0.commit.committedInstType_0::FloatMemWrite         2405      0.00%    100.00% # Class of committed instruction (Count)
system.cpu0.commit.committedInstType_0::IprAccess            0      0.00%    100.00% # Class of committed instruction (Count)
system.cpu0.commit.committedInstType_0::InstPrefetch            0      0.00%    100.00% # Class of committed instruction (Count)
system.cpu0.commit.committedInstType_0::total    219257454                       # Class of committed instruction (Count)
system.cpu0.commit.commitEligibleSamples      7961305                       # number cycles where commit BW limit reached (Cycle)
system.cpu0.dcache.demandHits::cpu0.data     20413428                       # number of demand (read+write) hits (Count)
system.cpu0.dcache.demandHits::total         20413428                       # number of demand (read+write) hits (Count)
system.cpu0.dcache.overallHits::cpu0.data     20413428                       # number of overall hits (Count)
system.cpu0.dcache.overallHits::total        20413428                       # number of overall hits (Count)
system.cpu0.dcache.demandMisses::cpu0.data      3618528                       # number of demand (read+write) misses (Count)
system.cpu0.dcache.demandMisses::total        3618528                       # number of demand (read+write) misses (Count)
system.cpu0.dcache.overallMisses::cpu0.data      3618528                       # number of overall misses (Count)
system.cpu0.dcache.overallMisses::total       3618528                       # number of overall misses (Count)
system.cpu0.dcache.demandMissLatency::cpu0.data 219970493979                       # number of demand (read+write) miss ticks (Tick)
system.cpu0.dcache.demandMissLatency::total 219970493979                       # number of demand (read+write) miss ticks (Tick)
system.cpu0.dcache.overallMissLatency::cpu0.data 219970493979                       # number of overall miss ticks (Tick)
system.cpu0.dcache.overallMissLatency::total 219970493979                       # number of overall miss ticks (Tick)
system.cpu0.dcache.demandAccesses::cpu0.data     24031956                       # number of demand (read+write) accesses (Count)
system.cpu0.dcache.demandAccesses::total     24031956                       # number of demand (read+write) accesses (Count)
system.cpu0.dcache.overallAccesses::cpu0.data     24031956                       # number of overall (read+write) accesses (Count)
system.cpu0.dcache.overallAccesses::total     24031956                       # number of overall (read+write) accesses (Count)
system.cpu0.dcache.demandMissRate::cpu0.data     0.150572                       # miss rate for demand accesses (Ratio)
system.cpu0.dcache.demandMissRate::total     0.150572                       # miss rate for demand accesses (Ratio)
system.cpu0.dcache.overallMissRate::cpu0.data     0.150572                       # miss rate for overall accesses (Ratio)
system.cpu0.dcache.overallMissRate::total     0.150572                       # miss rate for overall accesses (Ratio)
system.cpu0.dcache.demandAvgMissLatency::cpu0.data 60790.048876                       # average overall miss latency in ticks ((Tick/Count))
system.cpu0.dcache.demandAvgMissLatency::total 60790.048876                       # average overall miss latency in ticks ((Tick/Count))
system.cpu0.dcache.overallAvgMissLatency::cpu0.data 60790.048876                       # average overall miss latency ((Tick/Count))
system.cpu0.dcache.overallAvgMissLatency::total 60790.048876                       # average overall miss latency ((Tick/Count))
system.cpu0.dcache.blockedCycles::no_mshrs        38424                       # number of cycles access was blocked (Cycle)
system.cpu0.dcache.blockedCycles::no_targets            6                       # number of cycles access was blocked (Cycle)
system.cpu0.dcache.blockedCauses::no_mshrs          572                       # number of times access was blocked (Count)
system.cpu0.dcache.blockedCauses::no_targets            2                       # number of times access was blocked (Count)
system.cpu0.dcache.avgBlocked::no_mshrs     67.174825                       # average number of cycles each access was blocked ((Cycle/Count))
system.cpu0.dcache.avgBlocked::no_targets            3                       # average number of cycles each access was blocked ((Cycle/Count))
system.cpu0.dcache.writebacks::writebacks       969328                       # number of writebacks (Count)
system.cpu0.dcache.writebacks::total           969328                       # number of writebacks (Count)
system.cpu0.dcache.demandMshrHits::cpu0.data      2252803                       # number of demand (read+write) MSHR hits (Count)
system.cpu0.dcache.demandMshrHits::total      2252803                       # number of demand (read+write) MSHR hits (Count)
system.cpu0.dcache.overallMshrHits::cpu0.data      2252803                       # number of overall MSHR hits (Count)
system.cpu0.dcache.overallMshrHits::total      2252803                       # number of overall MSHR hits (Count)
system.cpu0.dcache.demandMshrMisses::cpu0.data      1365725                       # number of demand (read+write) MSHR misses (Count)
system.cpu0.dcache.demandMshrMisses::total      1365725                       # number of demand (read+write) MSHR misses (Count)
system.cpu0.dcache.overallMshrMisses::cpu0.data      1365725                       # number of overall MSHR misses (Count)
system.cpu0.dcache.overallMshrMisses::total      1365725                       # number of overall MSHR misses (Count)
system.cpu0.dcache.demandMshrMissLatency::cpu0.data  70719960246                       # number of demand (read+write) MSHR miss ticks (Tick)
system.cpu0.dcache.demandMshrMissLatency::total  70719960246                       # number of demand (read+write) MSHR miss ticks (Tick)
system.cpu0.dcache.overallMshrMissLatency::cpu0.data  70719960246                       # number of overall MSHR miss ticks (Tick)
system.cpu0.dcache.overallMshrMissLatency::total  70719960246                       # number of overall MSHR miss ticks (Tick)
system.cpu0.dcache.demandMshrMissRate::cpu0.data     0.056830                       # mshr miss ratio for demand accesses (Ratio)
system.cpu0.dcache.demandMshrMissRate::total     0.056830                       # mshr miss ratio for demand accesses (Ratio)
system.cpu0.dcache.overallMshrMissRate::cpu0.data     0.056830                       # mshr miss ratio for overall accesses (Ratio)
system.cpu0.dcache.overallMshrMissRate::total     0.056830                       # mshr miss ratio for overall accesses (Ratio)
system.cpu0.dcache.demandAvgMshrMissLatency::cpu0.data 51781.991430                       # average overall mshr miss latency ((Tick/Count))
system.cpu0.dcache.demandAvgMshrMissLatency::total 51781.991430                       # average overall mshr miss latency ((Tick/Count))
system.cpu0.dcache.overallAvgMshrMissLatency::cpu0.data 51781.991430                       # average overall mshr miss latency ((Tick/Count))
system.cpu0.dcache.overallAvgMshrMissLatency::total 51781.991430                       # average overall mshr miss latency ((Tick/Count))
system.cpu0.dcache.replacements               1361866                       # number of replacements (Count)
system.cpu0.dcache.LockedRMWReadReq.hits::cpu0.data          227                       # number of LockedRMWReadReq hits (Count)
system.cpu0.dcache.LockedRMWReadReq.hits::total          227                       # number of LockedRMWReadReq hits (Count)
system.cpu0.dcache.LockedRMWReadReq.misses::cpu0.data           47                       # number of LockedRMWReadReq misses (Count)
system.cpu0.dcache.LockedRMWReadReq.misses::total           47                       # number of LockedRMWReadReq misses (Count)
system.cpu0.dcache.LockedRMWReadReq.missLatency::cpu0.data      1276722                       # number of LockedRMWReadReq miss ticks (Tick)
system.cpu0.dcache.LockedRMWReadReq.missLatency::total      1276722                       # number of LockedRMWReadReq miss ticks (Tick)
system.cpu0.dcache.LockedRMWReadReq.accesses::cpu0.data          274                       # number of LockedRMWReadReq accesses(hits+misses) (Count)
system.cpu0.dcache.LockedRMWReadReq.accesses::total          274                       # number of LockedRMWReadReq accesses(hits+misses) (Count)
system.cpu0.dcache.LockedRMWReadReq.missRate::cpu0.data     0.171533                       # miss rate for LockedRMWReadReq accesses (Ratio)
system.cpu0.dcache.LockedRMWReadReq.missRate::total     0.171533                       # miss rate for LockedRMWReadReq accesses (Ratio)
system.cpu0.dcache.LockedRMWReadReq.avgMissLatency::cpu0.data 27164.297872                       # average LockedRMWReadReq miss latency ((Tick/Count))
system.cpu0.dcache.LockedRMWReadReq.avgMissLatency::total 27164.297872                       # average LockedRMWReadReq miss latency ((Tick/Count))
system.cpu0.dcache.LockedRMWReadReq.mshrHits::cpu0.data            1                       # number of LockedRMWReadReq MSHR hits (Count)
system.cpu0.dcache.LockedRMWReadReq.mshrHits::total            1                       # number of LockedRMWReadReq MSHR hits (Count)
system.cpu0.dcache.LockedRMWReadReq.mshrMisses::cpu0.data           46                       # number of LockedRMWReadReq MSHR misses (Count)
system.cpu0.dcache.LockedRMWReadReq.mshrMisses::total           46                       # number of LockedRMWReadReq MSHR misses (Count)
system.cpu0.dcache.LockedRMWReadReq.mshrMissLatency::cpu0.data      3245085                       # number of LockedRMWReadReq MSHR miss ticks (Tick)
system.cpu0.dcache.LockedRMWReadReq.mshrMissLatency::total      3245085                       # number of LockedRMWReadReq MSHR miss ticks (Tick)
system.cpu0.dcache.LockedRMWReadReq.mshrMissRate::cpu0.data     0.167883                       # mshr miss rate for LockedRMWReadReq accesses (Ratio)
system.cpu0.dcache.LockedRMWReadReq.mshrMissRate::total     0.167883                       # mshr miss rate for LockedRMWReadReq accesses (Ratio)
system.cpu0.dcache.LockedRMWReadReq.avgMshrMissLatency::cpu0.data 70545.326087                       # average LockedRMWReadReq mshr miss latency ((Tick/Count))
system.cpu0.dcache.LockedRMWReadReq.avgMshrMissLatency::total 70545.326087                       # average LockedRMWReadReq mshr miss latency ((Tick/Count))
system.cpu0.dcache.LockedRMWWriteReq.hits::cpu0.data          274                       # number of LockedRMWWriteReq hits (Count)
system.cpu0.dcache.LockedRMWWriteReq.hits::total          274                       # number of LockedRMWWriteReq hits (Count)
system.cpu0.dcache.LockedRMWWriteReq.accesses::cpu0.data          274                       # number of LockedRMWWriteReq accesses(hits+misses) (Count)
system.cpu0.dcache.LockedRMWWriteReq.accesses::total          274                       # number of LockedRMWWriteReq accesses(hits+misses) (Count)
system.cpu0.dcache.ReadReq.hits::cpu0.data     13936744                       # number of ReadReq hits (Count)
system.cpu0.dcache.ReadReq.hits::total       13936744                       # number of ReadReq hits (Count)
system.cpu0.dcache.ReadReq.misses::cpu0.data      2712167                       # number of ReadReq misses (Count)
system.cpu0.dcache.ReadReq.misses::total      2712167                       # number of ReadReq misses (Count)
system.cpu0.dcache.ReadReq.missLatency::cpu0.data 185654096397                       # number of ReadReq miss ticks (Tick)
system.cpu0.dcache.ReadReq.missLatency::total 185654096397                       # number of ReadReq miss ticks (Tick)
system.cpu0.dcache.ReadReq.accesses::cpu0.data     16648911                       # number of ReadReq accesses(hits+misses) (Count)
system.cpu0.dcache.ReadReq.accesses::total     16648911                       # number of ReadReq accesses(hits+misses) (Count)
system.cpu0.dcache.ReadReq.missRate::cpu0.data     0.162904                       # miss rate for ReadReq accesses (Ratio)
system.cpu0.dcache.ReadReq.missRate::total     0.162904                       # miss rate for ReadReq accesses (Ratio)
system.cpu0.dcache.ReadReq.avgMissLatency::cpu0.data 68452.310052                       # average ReadReq miss latency ((Tick/Count))
system.cpu0.dcache.ReadReq.avgMissLatency::total 68452.310052                       # average ReadReq miss latency ((Tick/Count))
system.cpu0.dcache.ReadReq.mshrHits::cpu0.data      2252792                       # number of ReadReq MSHR hits (Count)
system.cpu0.dcache.ReadReq.mshrHits::total      2252792                       # number of ReadReq MSHR hits (Count)
system.cpu0.dcache.ReadReq.mshrMisses::cpu0.data       459375                       # number of ReadReq MSHR misses (Count)
system.cpu0.dcache.ReadReq.mshrMisses::total       459375                       # number of ReadReq MSHR misses (Count)
system.cpu0.dcache.ReadReq.mshrMissLatency::cpu0.data  37007524431                       # number of ReadReq MSHR miss ticks (Tick)
system.cpu0.dcache.ReadReq.mshrMissLatency::total  37007524431                       # number of ReadReq MSHR miss ticks (Tick)
system.cpu0.dcache.ReadReq.mshrMissRate::cpu0.data     0.027592                       # mshr miss rate for ReadReq accesses (Ratio)
system.cpu0.dcache.ReadReq.mshrMissRate::total     0.027592                       # mshr miss rate for ReadReq accesses (Ratio)
system.cpu0.dcache.ReadReq.avgMshrMissLatency::cpu0.data 80560.597401                       # average ReadReq mshr miss latency ((Tick/Count))
system.cpu0.dcache.ReadReq.avgMshrMissLatency::total 80560.597401                       # average ReadReq mshr miss latency ((Tick/Count))
system.cpu0.dcache.WriteReq.hits::cpu0.data      6476684                       # number of WriteReq hits (Count)
system.cpu0.dcache.WriteReq.hits::total       6476684                       # number of WriteReq hits (Count)
system.cpu0.dcache.WriteReq.misses::cpu0.data       906361                       # number of WriteReq misses (Count)
system.cpu0.dcache.WriteReq.misses::total       906361                       # number of WriteReq misses (Count)
system.cpu0.dcache.WriteReq.missLatency::cpu0.data  34316397582                       # number of WriteReq miss ticks (Tick)
system.cpu0.dcache.WriteReq.missLatency::total  34316397582                       # number of WriteReq miss ticks (Tick)
system.cpu0.dcache.WriteReq.accesses::cpu0.data      7383045                       # number of WriteReq accesses(hits+misses) (Count)
system.cpu0.dcache.WriteReq.accesses::total      7383045                       # number of WriteReq accesses(hits+misses) (Count)
system.cpu0.dcache.WriteReq.missRate::cpu0.data     0.122762                       # miss rate for WriteReq accesses (Ratio)
system.cpu0.dcache.WriteReq.missRate::total     0.122762                       # miss rate for WriteReq accesses (Ratio)
system.cpu0.dcache.WriteReq.avgMissLatency::cpu0.data 37861.732336                       # average WriteReq miss latency ((Tick/Count))
system.cpu0.dcache.WriteReq.avgMissLatency::total 37861.732336                       # average WriteReq miss latency ((Tick/Count))
system.cpu0.dcache.WriteReq.mshrHits::cpu0.data           11                       # number of WriteReq MSHR hits (Count)
system.cpu0.dcache.WriteReq.mshrHits::total           11                       # number of WriteReq MSHR hits (Count)
system.cpu0.dcache.WriteReq.mshrMisses::cpu0.data       906350                       # number of WriteReq MSHR misses (Count)
system.cpu0.dcache.WriteReq.mshrMisses::total       906350                       # number of WriteReq MSHR misses (Count)
system.cpu0.dcache.WriteReq.mshrMissLatency::cpu0.data  33712435815                       # number of WriteReq MSHR miss ticks (Tick)
system.cpu0.dcache.WriteReq.mshrMissLatency::total  33712435815                       # number of WriteReq MSHR miss ticks (Tick)
system.cpu0.dcache.WriteReq.mshrMissRate::cpu0.data     0.122761                       # mshr miss rate for WriteReq accesses (Ratio)
system.cpu0.dcache.WriteReq.mshrMissRate::total     0.122761                       # mshr miss rate for WriteReq accesses (Ratio)
system.cpu0.dcache.WriteReq.avgMshrMissLatency::cpu0.data 37195.824808                       # average WriteReq mshr miss latency ((Tick/Count))
system.cpu0.dcache.WriteReq.avgMshrMissLatency::total 37195.824808                       # average WriteReq mshr miss latency ((Tick/Count))
system.cpu0.dcache.power_state.pwrStateResidencyTicks::UNDEFINED  67259374299                       # Cumulative time (in ticks) in various power states (Tick)
system.cpu0.dcache.tags.tagsInUse          511.736805                       # Average ticks per tags in use ((Tick/Count))
system.cpu0.dcache.tags.totalRefs            21779745                       # Total number of references to valid blocks. (Count)
system.cpu0.dcache.tags.sampledRefs           1363944                       # Sample count of references to valid blocks. (Count)
system.cpu0.dcache.tags.avgRefs             15.968211                       # Average number of references to valid blocks. ((Count/Count))
system.cpu0.dcache.tags.warmupTick             189144                       # The tick when the warmup percentage was hit. (Tick)
system.cpu0.dcache.tags.occupancies::cpu0.data   511.736805                       # Average occupied blocks per tick, per requestor ((Count/Tick))
system.cpu0.dcache.tags.avgOccs::cpu0.data     0.999486                       # Average percentage of cache occupancy ((Ratio/Tick))
system.cpu0.dcache.tags.avgOccs::total       0.999486                       # Average percentage of cache occupancy ((Ratio/Tick))
system.cpu0.dcache.tags.occupanciesTaskId::1024          512                       # Occupied blocks per task id (Count)
system.cpu0.dcache.tags.ageTaskId_1024::0           72                       # Occupied blocks per task id, per block age (Count)
system.cpu0.dcache.tags.ageTaskId_1024::1          431                       # Occupied blocks per task id, per block age (Count)
system.cpu0.dcache.tags.ageTaskId_1024::2            2                       # Occupied blocks per task id, per block age (Count)
system.cpu0.dcache.tags.ageTaskId_1024::3            7                       # Occupied blocks per task id, per block age (Count)
system.cpu0.dcache.tags.ratioOccsTaskId::1024            1                       # Ratio of occupied blocks and all blocks, per task id (Ratio)
system.cpu0.dcache.tags.tagAccesses         193623976                       # Number of tag accesses (Count)
system.cpu0.dcache.tags.dataAccesses        193623976                       # Number of data accesses (Count)
system.cpu0.dcache.tags.power_state.pwrStateResidencyTicks::UNDEFINED  67259374299                       # Cumulative time (in ticks) in various power states (Tick)
system.cpu0.decode.idleCycles                 8365772                       # Number of cycles decode is idle (Cycle)
system.cpu0.decode.blockedCycles            165582866                       # Number of cycles decode is blocked (Cycle)
system.cpu0.decode.runCycles                  4658347                       # Number of cycles decode is running (Cycle)
system.cpu0.decode.unblockCycles             22926925                       # Number of cycles decode is unblocking (Cycle)
system.cpu0.decode.squashCycles                  9463                       # Number of cycles decode is squashing (Cycle)
system.cpu0.decode.branchResolved             5835987                       # Number of times decode resolved a branch (Count)
system.cpu0.decode.branchMispred                  905                       # Number of times decode detected a branch misprediction (Count)
system.cpu0.decode.decodedInsts             220010339                       # Number of instructions handled by decode (Count)
system.cpu0.decode.squashedInsts                 4343                       # Number of squashed instructions handled by decode (Count)
system.cpu0.dtb_walker_cache.blockedCycles::no_mshrs            0                       # number of cycles access was blocked (Cycle)
system.cpu0.dtb_walker_cache.blockedCycles::no_targets            0                       # number of cycles access was blocked (Cycle)
system.cpu0.dtb_walker_cache.blockedCauses::no_mshrs            0                       # number of times access was blocked (Count)
system.cpu0.dtb_walker_cache.blockedCauses::no_targets            0                       # number of times access was blocked (Count)
system.cpu0.dtb_walker_cache.avgBlocked::no_mshrs          nan                       # average number of cycles each access was blocked ((Cycle/Count))
system.cpu0.dtb_walker_cache.avgBlocked::no_targets          nan                       # average number of cycles each access was blocked ((Cycle/Count))
system.cpu0.dtb_walker_cache.replacements            0                       # number of replacements (Count)
system.cpu0.dtb_walker_cache.power_state.pwrStateResidencyTicks::UNDEFINED  67259374299                       # Cumulative time (in ticks) in various power states (Tick)
system.cpu0.dtb_walker_cache.tags.tagsInUse            0                       # Average ticks per tags in use ((Tick/Count))
system.cpu0.dtb_walker_cache.tags.totalRefs            0                       # Total number of references to valid blocks. (Count)
system.cpu0.dtb_walker_cache.tags.sampledRefs            0                       # Sample count of references to valid blocks. (Count)
system.cpu0.dtb_walker_cache.tags.avgRefs          nan                       # Average number of references to valid blocks. ((Count/Count))
system.cpu0.dtb_walker_cache.tags.warmupTick            0                       # The tick when the warmup percentage was hit. (Tick)
system.cpu0.dtb_walker_cache.tags.tagAccesses            0                       # Number of tag accesses (Count)
system.cpu0.dtb_walker_cache.tags.dataAccesses            0                       # Number of data accesses (Count)
system.cpu0.dtb_walker_cache.tags.power_state.pwrStateResidencyTicks::UNDEFINED  67259374299                       # Cumulative time (in ticks) in various power states (Tick)
system.cpu0.fetch.icacheStallCycles          16456086                       # Number of cycles fetch is stalled on an Icache miss (Cycle)
system.cpu0.fetch.insts                     127733462                       # Number of instructions fetch has processed (Count)
system.cpu0.fetch.branches                    8010872                       # Number of branches that fetch encountered (Count)
system.cpu0.fetch.predictedBranches           7944452                       # Number of branches that fetch has predicted taken (Count)
system.cpu0.fetch.cycles                    185070703                       # Number of cycles fetch has run and was not squashing or blocked (Cycle)
system.cpu0.fetch.squashCycles                  20700                       # Number of cycles fetch has spent squashing (Cycle)
system.cpu0.fetch.miscStallCycles                 807                       # Number of cycles fetch has spent waiting on interrupts, or bad addresses, or out of MSHRs (Cycle)
system.cpu0.fetch.pendingTrapStallCycles         5406                       # Number of stall cycles due to pending traps (Cycle)
system.cpu0.fetch.icacheWaitRetryStallCycles           21                       # Number of stall cycles due to full MSHR (Cycle)
system.cpu0.fetch.cacheLines                 16373188                       # Number of cache lines fetched (Count)
system.cpu0.fetch.icacheSquashes                 2609                       # Number of outstanding Icache misses that were squashed (Count)
system.cpu0.fetch.nisnDist::samples         201543373                       # Number of instructions fetched each cycle (Total) (Count)
system.cpu0.fetch.nisnDist::mean             1.092387                       # Number of instructions fetched each cycle (Total) (Count)
system.cpu0.fetch.nisnDist::stdev            2.482810                       # Number of instructions fetched each cycle (Total) (Count)
system.cpu0.fetch.nisnDist::underflows              0      0.00%      0.00% # Number of instructions fetched each cycle (Total) (Count)
system.cpu0.fetch.nisnDist::0               162908028     80.83%     80.83% # Number of instructions fetched each cycle (Total) (Count)
system.cpu0.fetch.nisnDist::1                 2700048      1.34%     82.17% # Number of instructions fetched each cycle (Total) (Count)
system.cpu0.fetch.nisnDist::2                 3038887      1.51%     83.68% # Number of instructions fetched each cycle (Total) (Count)
system.cpu0.fetch.nisnDist::3                 3826991      1.90%     85.58% # Number of instructions fetched each cycle (Total) (Count)
system.cpu0.fetch.nisnDist::4                 2435569      1.21%     86.79% # Number of instructions fetched each cycle (Total) (Count)
system.cpu0.fetch.nisnDist::5                 4267477      2.12%     88.90% # Number of instructions fetched each cycle (Total) (Count)
system.cpu0.fetch.nisnDist::6                 4038400      2.00%     90.91% # Number of instructions fetched each cycle (Total) (Count)
system.cpu0.fetch.nisnDist::7                 2029363      1.01%     91.91% # Number of instructions fetched each cycle (Total) (Count)
system.cpu0.fetch.nisnDist::8                16298610      8.09%    100.00% # Number of instructions fetched each cycle (Total) (Count)
system.cpu0.fetch.nisnDist::overflows               0      0.00%    100.00% # Number of instructions fetched each cycle (Total) (Count)
system.cpu0.fetch.nisnDist::min_value               0                       # Number of instructions fetched each cycle (Total) (Count)
system.cpu0.fetch.nisnDist::max_value               8                       # Number of instructions fetched each cycle (Total) (Count)
system.cpu0.fetch.nisnDist::total           201543373                       # Number of instructions fetched each cycle (Total) (Count)
system.cpu0.fetch.branchRate                 0.039700                       # Number of branch fetches per cycle (Ratio)
system.cpu0.fetch.rate                       0.633024                       # Number of inst fetches per cycle ((Count/Cycle))
system.cpu0.icache.demandHits::cpu0.inst     16370652                       # number of demand (read+write) hits (Count)
system.cpu0.icache.demandHits::total         16370652                       # number of demand (read+write) hits (Count)
system.cpu0.icache.overallHits::cpu0.inst     16370652                       # number of overall hits (Count)
system.cpu0.icache.overallHits::total        16370652                       # number of overall hits (Count)
system.cpu0.icache.demandMisses::cpu0.inst         2536                       # number of demand (read+write) misses (Count)
system.cpu0.icache.demandMisses::total           2536                       # number of demand (read+write) misses (Count)
system.cpu0.icache.overallMisses::cpu0.inst         2536                       # number of overall misses (Count)
system.cpu0.icache.overallMisses::total          2536                       # number of overall misses (Count)
system.cpu0.icache.demandMissLatency::cpu0.inst    202381748                       # number of demand (read+write) miss ticks (Tick)
system.cpu0.icache.demandMissLatency::total    202381748                       # number of demand (read+write) miss ticks (Tick)
system.cpu0.icache.overallMissLatency::cpu0.inst    202381748                       # number of overall miss ticks (Tick)
system.cpu0.icache.overallMissLatency::total    202381748                       # number of overall miss ticks (Tick)
system.cpu0.icache.demandAccesses::cpu0.inst     16373188                       # number of demand (read+write) accesses (Count)
system.cpu0.icache.demandAccesses::total     16373188                       # number of demand (read+write) accesses (Count)
system.cpu0.icache.overallAccesses::cpu0.inst     16373188                       # number of overall (read+write) accesses (Count)
system.cpu0.icache.overallAccesses::total     16373188                       # number of overall (read+write) accesses (Count)
system.cpu0.icache.demandMissRate::cpu0.inst     0.000155                       # miss rate for demand accesses (Ratio)
system.cpu0.icache.demandMissRate::total     0.000155                       # miss rate for demand accesses (Ratio)
system.cpu0.icache.overallMissRate::cpu0.inst     0.000155                       # miss rate for overall accesses (Ratio)
system.cpu0.icache.overallMissRate::total     0.000155                       # miss rate for overall accesses (Ratio)
system.cpu0.icache.demandAvgMissLatency::cpu0.inst 79803.528391                       # average overall miss latency in ticks ((Tick/Count))
system.cpu0.icache.demandAvgMissLatency::total 79803.528391                       # average overall miss latency in ticks ((Tick/Count))
system.cpu0.icache.overallAvgMissLatency::cpu0.inst 79803.528391                       # average overall miss latency ((Tick/Count))
system.cpu0.icache.overallAvgMissLatency::total 79803.528391                       # average overall miss latency ((Tick/Count))
system.cpu0.icache.blockedCycles::no_mshrs         1714                       # number of cycles access was blocked (Cycle)
system.cpu0.icache.blockedCycles::no_targets            0                       # number of cycles access was blocked (Cycle)
system.cpu0.icache.blockedCauses::no_mshrs           12                       # number of times access was blocked (Count)
system.cpu0.icache.blockedCauses::no_targets            0                       # number of times access was blocked (Count)
system.cpu0.icache.avgBlocked::no_mshrs    142.833333                       # average number of cycles each access was blocked ((Cycle/Count))
system.cpu0.icache.avgBlocked::no_targets          nan                       # average number of cycles each access was blocked ((Cycle/Count))
system.cpu0.icache.writebacks::writebacks         1385                       # number of writebacks (Count)
system.cpu0.icache.writebacks::total             1385                       # number of writebacks (Count)
system.cpu0.icache.demandMshrHits::cpu0.inst          638                       # number of demand (read+write) MSHR hits (Count)
system.cpu0.icache.demandMshrHits::total          638                       # number of demand (read+write) MSHR hits (Count)
system.cpu0.icache.overallMshrHits::cpu0.inst          638                       # number of overall MSHR hits (Count)
system.cpu0.icache.overallMshrHits::total          638                       # number of overall MSHR hits (Count)
system.cpu0.icache.demandMshrMisses::cpu0.inst         1898                       # number of demand (read+write) MSHR misses (Count)
system.cpu0.icache.demandMshrMisses::total         1898                       # number of demand (read+write) MSHR misses (Count)
system.cpu0.icache.overallMshrMisses::cpu0.inst         1898                       # number of overall MSHR misses (Count)
system.cpu0.icache.overallMshrMisses::total         1898                       # number of overall MSHR misses (Count)
system.cpu0.icache.demandMshrMissLatency::cpu0.inst    155855321                       # number of demand (read+write) MSHR miss ticks (Tick)
system.cpu0.icache.demandMshrMissLatency::total    155855321                       # number of demand (read+write) MSHR miss ticks (Tick)
system.cpu0.icache.overallMshrMissLatency::cpu0.inst    155855321                       # number of overall MSHR miss ticks (Tick)
system.cpu0.icache.overallMshrMissLatency::total    155855321                       # number of overall MSHR miss ticks (Tick)
system.cpu0.icache.demandMshrMissRate::cpu0.inst     0.000116                       # mshr miss ratio for demand accesses (Ratio)
system.cpu0.icache.demandMshrMissRate::total     0.000116                       # mshr miss ratio for demand accesses (Ratio)
system.cpu0.icache.overallMshrMissRate::cpu0.inst     0.000116                       # mshr miss ratio for overall accesses (Ratio)
system.cpu0.icache.overallMshrMissRate::total     0.000116                       # mshr miss ratio for overall accesses (Ratio)
system.cpu0.icache.demandAvgMshrMissLatency::cpu0.inst 82115.553741                       # average overall mshr miss latency ((Tick/Count))
system.cpu0.icache.demandAvgMshrMissLatency::total 82115.553741                       # average overall mshr miss latency ((Tick/Count))
system.cpu0.icache.overallAvgMshrMissLatency::cpu0.inst 82115.553741                       # average overall mshr miss latency ((Tick/Count))
system.cpu0.icache.overallAvgMshrMissLatency::total 82115.553741                       # average overall mshr miss latency ((Tick/Count))
system.cpu0.icache.replacements                  1385                       # number of replacements (Count)
system.cpu0.icache.ReadReq.hits::cpu0.inst     16370652                       # number of ReadReq hits (Count)
system.cpu0.icache.ReadReq.hits::total       16370652                       # number of ReadReq hits (Count)
system.cpu0.icache.ReadReq.misses::cpu0.inst         2536                       # number of ReadReq misses (Count)
system.cpu0.icache.ReadReq.misses::total         2536                       # number of ReadReq misses (Count)
system.cpu0.icache.ReadReq.missLatency::cpu0.inst    202381748                       # number of ReadReq miss ticks (Tick)
system.cpu0.icache.ReadReq.missLatency::total    202381748                       # number of ReadReq miss ticks (Tick)
system.cpu0.icache.ReadReq.accesses::cpu0.inst     16373188                       # number of ReadReq accesses(hits+misses) (Count)
system.cpu0.icache.ReadReq.accesses::total     16373188                       # number of ReadReq accesses(hits+misses) (Count)
system.cpu0.icache.ReadReq.missRate::cpu0.inst     0.000155                       # miss rate for ReadReq accesses (Ratio)
system.cpu0.icache.ReadReq.missRate::total     0.000155                       # miss rate for ReadReq accesses (Ratio)
system.cpu0.icache.ReadReq.avgMissLatency::cpu0.inst 79803.528391                       # average ReadReq miss latency ((Tick/Count))
system.cpu0.icache.ReadReq.avgMissLatency::total 79803.528391                       # average ReadReq miss latency ((Tick/Count))
system.cpu0.icache.ReadReq.mshrHits::cpu0.inst          638                       # number of ReadReq MSHR hits (Count)
system.cpu0.icache.ReadReq.mshrHits::total          638                       # number of ReadReq MSHR hits (Count)
system.cpu0.icache.ReadReq.mshrMisses::cpu0.inst         1898                       # number of ReadReq MSHR misses (Count)
system.cpu0.icache.ReadReq.mshrMisses::total         1898                       # number of ReadReq MSHR misses (Count)
system.cpu0.icache.ReadReq.mshrMissLatency::cpu0.inst    155855321                       # number of ReadReq MSHR miss ticks (Tick)
system.cpu0.icache.ReadReq.mshrMissLatency::total    155855321                       # number of ReadReq MSHR miss ticks (Tick)
system.cpu0.icache.ReadReq.mshrMissRate::cpu0.inst     0.000116                       # mshr miss rate for ReadReq accesses (Ratio)
system.cpu0.icache.ReadReq.mshrMissRate::total     0.000116                       # mshr miss rate for ReadReq accesses (Ratio)
system.cpu0.icache.ReadReq.avgMshrMissLatency::cpu0.inst 82115.553741                       # average ReadReq mshr miss latency ((Tick/Count))
system.cpu0.icache.ReadReq.avgMshrMissLatency::total 82115.553741                       # average ReadReq mshr miss latency ((Tick/Count))
system.cpu0.icache.power_state.pwrStateResidencyTicks::UNDEFINED  67259374299                       # Cumulative time (in ticks) in various power states (Tick)
system.cpu0.icache.tags.tagsInUse          511.824666                       # Average ticks per tags in use ((Tick/Count))
system.cpu0.icache.tags.totalRefs            16372549                       # Total number of references to valid blocks. (Count)
system.cpu0.icache.tags.sampledRefs              1897                       # Sample count of references to valid blocks. (Count)
system.cpu0.icache.tags.avgRefs           8630.758566                       # Average number of references to valid blocks. ((Count/Count))
system.cpu0.icache.tags.warmupTick              92241                       # The tick when the warmup percentage was hit. (Tick)
system.cpu0.icache.tags.occupancies::cpu0.inst   511.824666                       # Average occupied blocks per tick, per requestor ((Count/Tick))
system.cpu0.icache.tags.avgOccs::cpu0.inst     0.999658                       # Average percentage of cache occupancy ((Ratio/Tick))
system.cpu0.icache.tags.avgOccs::total       0.999658                       # Average percentage of cache occupancy ((Ratio/Tick))
system.cpu0.icache.tags.occupanciesTaskId::1024          512                       # Occupied blocks per task id (Count)
system.cpu0.icache.tags.ageTaskId_1024::0          126                       # Occupied blocks per task id, per block age (Count)
system.cpu0.icache.tags.ageTaskId_1024::1          197                       # Occupied blocks per task id, per block age (Count)
system.cpu0.icache.tags.ageTaskId_1024::3            1                       # Occupied blocks per task id, per block age (Count)
system.cpu0.icache.tags.ageTaskId_1024::4          188                       # Occupied blocks per task id, per block age (Count)
system.cpu0.icache.tags.ratioOccsTaskId::1024            1                       # Ratio of occupied blocks and all blocks, per task id (Ratio)
system.cpu0.icache.tags.tagAccesses         130987401                       # Number of tag accesses (Count)
system.cpu0.icache.tags.dataAccesses        130987401                       # Number of data accesses (Count)
system.cpu0.icache.tags.power_state.pwrStateResidencyTicks::UNDEFINED  67259374299                       # Cumulative time (in ticks) in various power states (Tick)
system.cpu0.iew.idleCycles                          0                       # Number of cycles IEW is idle (Cycle)
system.cpu0.iew.squashCycles                     9463                       # Number of cycles IEW is squashing (Cycle)
system.cpu0.iew.blockCycles                  40924013                       # Number of cycles IEW is blocking (Cycle)
system.cpu0.iew.unblockCycles                20412111                       # Number of cycles IEW is unblocking (Cycle)
system.cpu0.iew.dispatchedInsts             219916608                       # Number of instructions dispatched to IQ (Count)
system.cpu0.iew.dispSquashedInsts                 621                       # Number of squashed instructions skipped by dispatch (Count)
system.cpu0.iew.dispLoadInsts                19043088                       # Number of dispatched load instructions (Count)
system.cpu0.iew.dispStoreInsts                7419762                       # Number of dispatched store instructions (Count)
system.cpu0.iew.dispNonSpecInsts                  610                       # Number of dispatched non-speculative instructions (Count)
system.cpu0.iew.iqFullEvents                   101343                       # Number of times the IQ has become full, causing a stall (Count)
system.cpu0.iew.lsqFullEvents                20136403                       # Number of times the LSQ has become full, causing a stall (Count)
system.cpu0.iew.memOrderViolationEvents           194                       # Number of memory order violations (Count)
system.cpu0.iew.predictedTakenIncorrect          2361                       # Number of branches that were predicted taken incorrectly (Count)
system.cpu0.iew.predictedNotTakenIncorrect         6013                       # Number of branches that were predicted not taken incorrectly (Count)
system.cpu0.iew.branchMispredicts                8374                       # Number of branch mispredicts detected at execute (Count)
system.cpu0.iew.instsToCommit               219721828                       # Cumulative count of insts sent to commit (Count)
system.cpu0.iew.writebackCount              219710331                       # Cumulative count of insts written-back (Count)
system.cpu0.iew.producerInst                165273736                       # Number of instructions producing a value (Count)
system.cpu0.iew.consumerInst                306997492                       # Number of instructions consuming a value (Count)
system.cpu0.iew.wbRate                       1.088845                       # Insts written-back per cycle ((Count/Cycle))
system.cpu0.iew.wbFanout                     0.538355                       # Average fanout of values written-back ((Count/Count))
system.cpu0.interrupts.clk_domain.clock          5328                       # Clock period in ticks (Tick)
system.cpu0.itb_walker_cache.blockedCycles::no_mshrs            0                       # number of cycles access was blocked (Cycle)
system.cpu0.itb_walker_cache.blockedCycles::no_targets            0                       # number of cycles access was blocked (Cycle)
system.cpu0.itb_walker_cache.blockedCauses::no_mshrs            0                       # number of times access was blocked (Count)
system.cpu0.itb_walker_cache.blockedCauses::no_targets            0                       # number of times access was blocked (Count)
system.cpu0.itb_walker_cache.avgBlocked::no_mshrs          nan                       # average number of cycles each access was blocked ((Cycle/Count))
[...]
system.mem_ctrls.dram.perBankWrBursts::11        28578                       # Per bank write bursts (Count)
system.mem_ctrls.dram.perBankWrBursts::12        28268                       # Per bank write bursts (Count)
system.mem_ctrls.dram.perBankWrBursts::13        28228                       # Per bank write bursts (Count)
system.mem_ctrls.dram.perBankWrBursts::14        28175                       # Per bank write bursts (Count)
system.mem_ctrls.dram.perBankWrBursts::15        28594                       # Per bank write bursts (Count)
system.mem_ctrls.dram.totQLat             30960784315                       # Total ticks spent queuing (Tick)
system.mem_ctrls.dram.totBusLat            6149165000                       # Total ticks spent in databus transfers (Tick)
system.mem_ctrls.dram.totMemAccLat        54020153065                       # Total ticks spent from burst creation until serviced by the DRAM (Tick)
system.mem_ctrls.dram.avgQLat                25174.79                       # Average queueing delay per DRAM burst ((Tick/Count))
system.mem_ctrls.dram.avgBusLat               5000.00                       # Average bus latency per DRAM burst ((Tick/Count))
system.mem_ctrls.dram.avgMemAccLat           43924.79                       # Average memory access latency per DRAM burst ((Tick/Count))
system.mem_ctrls.dram.readRowHits              706896                       # Number of row buffer hits during reads (Count)
system.mem_ctrls.dram.writeRowHits             250073                       # Number of row buffer hits during writes (Count)
system.mem_ctrls.dram.readRowHitRate            57.48                       # Row buffer hit rate for reads (Ratio)
system.mem_ctrls.dram.writeRowHitRate           54.84                       # Row buffer hit rate for writes (Ratio)
system.mem_ctrls.dram.bytesPerActivate::samples       728897                       # Bytes accessed per row activation (Byte)
system.mem_ctrls.dram.bytesPerActivate::mean   148.024119                       # Bytes accessed per row activation (Byte)
system.mem_ctrls.dram.bytesPerActivate::gmean    94.926200                       # Bytes accessed per row activation (Byte)
system.mem_ctrls.dram.bytesPerActivate::stdev   210.235097                       # Bytes accessed per row activation (Byte)
system.mem_ctrls.dram.bytesPerActivate::0-127       537818     73.79%     73.79% # Bytes accessed per row activation (Byte)
system.mem_ctrls.dram.bytesPerActivate::128-255        86054     11.81%     85.59% # Bytes accessed per row activation (Byte)
system.mem_ctrls.dram.bytesPerActivate::256-383        31593      4.33%     89.93% # Bytes accessed per row activation (Byte)
system.mem_ctrls.dram.bytesPerActivate::384-511        19383      2.66%     92.58% # Bytes accessed per row activation (Byte)
system.mem_ctrls.dram.bytesPerActivate::512-639        13045      1.79%     94.37% # Bytes accessed per row activation (Byte)
system.mem_ctrls.dram.bytesPerActivate::640-767         8416      1.15%     95.53% # Bytes accessed per row activation (Byte)
system.mem_ctrls.dram.bytesPerActivate::768-895         6049      0.83%     96.36% # Bytes accessed per row activation (Byte)
system.mem_ctrls.dram.bytesPerActivate::896-1023         4460      0.61%     96.97% # Bytes accessed per row activation (Byte)
system.mem_ctrls.dram.bytesPerActivate::1024-1151        22079      3.03%    100.00% # Bytes accessed per row activation (Byte)
system.mem_ctrls.dram.bytesPerActivate::total       728897                       # Bytes accessed per row activation (Byte)
system.mem_ctrls.dram.bytesRead              78709312                       # Total bytes read (Byte)
system.mem_ctrls.dram.bytesWritten           29186560                       # Total bytes written (Byte)
system.mem_ctrls.dram.avgRdBW             1170.235567                       # Average DRAM read bandwidth in MiBytes/s ((Byte/Second))
system.mem_ctrls.dram.avgWrBW              433.940403                       # Average DRAM write bandwidth in MiBytes/s ((Byte/Second))
system.mem_ctrls.dram.peakBW                 12800.00                       # Theoretical peak bandwidth in MiByte/s ((Byte/Second))
system.mem_ctrls.dram.busUtil                   12.53                       # Data bus utilization in percentage (Ratio)
system.mem_ctrls.dram.busUtilRead                9.14                       # Data bus utilization in percentage for reads (Ratio)
system.mem_ctrls.dram.busUtilWrite               3.39                       # Data bus utilization in percentage for writes (Ratio)
system.mem_ctrls.dram.pageHitRate               56.76                       # Row buffer hit rate, read and write combined (Ratio)
system.mem_ctrls.dram.power_state.pwrStateResidencyTicks::UNDEFINED  67259374299                       # Cumulative time (in ticks) in various power states (Tick)
system.mem_ctrls.dram.rank0.actEnergy      2609741400                       # Energy for activate commands per rank (pJ) (Joule)
system.mem_ctrls.dram.rank0.preEnergy      1387102860                       # Energy for precharge commands per rank (pJ) (Joule)
system.mem_ctrls.dram.rank0.readEnergy     4396869120                       # Energy for read commands per rank (pJ) (Joule)
system.mem_ctrls.dram.rank0.writeEnergy    1197133920                       # Energy for write commands per rank (pJ) (Joule)
system.mem_ctrls.dram.rank0.refreshEnergy 5309260320.000001                       # Energy for refresh commands per rank (pJ) (Joule)
system.mem_ctrls.dram.rank0.actBackEnergy  24446609160                       # Energy for active background per rank (pJ) (Joule)
system.mem_ctrls.dram.rank0.preBackEnergy   5240981760                       # Energy for precharge background per rank (pJ) (Joule)
system.mem_ctrls.dram.rank0.actPowerDownEnergy            0                       # Energy for active power-down per rank (pJ) (Joule)
system.mem_ctrls.dram.rank0.prePowerDownEnergy            0                       # Energy for precharge power-down per rank (pJ) (Joule)
system.mem_ctrls.dram.rank0.selfRefreshEnergy            0                       # Energy for self refresh per rank (pJ) (Joule)
system.mem_ctrls.dram.rank0.totalEnergy   44587698540                       # Total energy per rank (pJ) (Joule)
system.mem_ctrls.dram.rank0.averagePower   662.921697                       # Core power per rank (mW) (Watt)
system.mem_ctrls.dram.rank0.totalIdleTime            0                       # Total Idle time Per DRAM Rank (Tick)
system.mem_ctrls.dram.rank0.pwrStateTime::IDLE  13351120805                       # Time in different power states (Tick)
system.mem_ctrls.dram.rank0.pwrStateTime::REF   2245880000                       # Time in different power states (Tick)
system.mem_ctrls.dram.rank0.pwrStateTime::SREF            0                       # Time in different power states (Tick)
system.mem_ctrls.dram.rank0.pwrStateTime::PRE_PDN            0                       # Time in different power states (Tick)
system.mem_ctrls.dram.rank0.pwrStateTime::ACT  51662373494                       # Time in different power states (Tick)
system.mem_ctrls.dram.rank0.pwrStateTime::ACT_PDN            0                       # Time in different power states (Tick)
system.mem_ctrls.dram.rank1.actEnergy      2594633160                       # Energy for activate commands per rank (pJ) (Joule)
system.mem_ctrls.dram.rank1.preEnergy      1379061255                       # Energy for precharge commands per rank (pJ) (Joule)
system.mem_ctrls.dram.rank1.readEnergy     4384138500                       # Energy for read commands per rank (pJ) (Joule)
system.mem_ctrls.dram.rank1.writeEnergy    1183394880                       # Energy for write commands per rank (pJ) (Joule)
system.mem_ctrls.dram.rank1.refreshEnergy 5309260320.000001                       # Energy for refresh commands per rank (pJ) (Joule)
system.mem_ctrls.dram.rank1.actBackEnergy  24370156200                       # Energy for active background per rank (pJ) (Joule)
system.mem_ctrls.dram.rank1.preBackEnergy   5305363200                       # Energy for precharge background per rank (pJ) (Joule)
system.mem_ctrls.dram.rank1.actPowerDownEnergy            0                       # Energy for active power-down per rank (pJ) (Joule)
system.mem_ctrls.dram.rank1.prePowerDownEnergy            0                       # Energy for precharge power-down per rank (pJ) (Joule)
system.mem_ctrls.dram.rank1.selfRefreshEnergy            0                       # Energy for self refresh per rank (pJ) (Joule)
system.mem_ctrls.dram.rank1.totalEnergy   44526007515                       # Total energy per rank (pJ) (Joule)
system.mem_ctrls.dram.rank1.averagePower   662.004486                       # Core power per rank (mW) (Watt)
system.mem_ctrls.dram.rank1.totalIdleTime            0                       # Total Idle time Per DRAM Rank (Tick)
system.mem_ctrls.dram.rank1.pwrStateTime::IDLE  13517277800                       # Time in different power states (Tick)
system.mem_ctrls.dram.rank1.pwrStateTime::REF   2245880000                       # Time in different power states (Tick)
system.mem_ctrls.dram.rank1.pwrStateTime::SREF            0                       # Time in different power states (Tick)
system.mem_ctrls.dram.rank1.pwrStateTime::PRE_PDN            0                       # Time in different power states (Tick)
system.mem_ctrls.dram.rank1.pwrStateTime::ACT  51496216499                       # Time in different power states (Tick)
system.mem_ctrls.dram.rank1.pwrStateTime::ACT_PDN            0                       # Time in different power states (Tick)
system.mem_ctrls.power_state.pwrStateResidencyTicks::UNDEFINED  67259374299                       # Cumulative time (in ticks) in various power states (Tick)
system.membus.transDist::ReadResp              700391                       # Transaction distribution (Count)
system.membus.transDist::WritebackDirty        456070                       # Transaction distribution (Count)
system.membus.transDist::CleanEvict            643407                       # Transaction distribution (Count)
system.membus.transDist::UpgradeReq              2933                       # Transaction distribution (Count)
system.membus.transDist::ReadExReq             530470                       # Transaction distribution (Count)
system.membus.transDist::ReadExResp            530418                       # Transaction distribution (Count)
system.membus.transDist::ReadSharedReq         700391                       # Transaction distribution (Count)
system.membus.pktCount_system.l3.mem_side_port::system.mem_ctrls.port      3564080                       # Packet count per connected requestor and responder (Count)
system.membus.pktCount_system.l3.mem_side_port::total      3564080                       # Packet count per connected requestor and responder (Count)
system.membus.pktCount::total                 3564080                       # Packet count per connected requestor and responder (Count)
system.membus.pktSize_system.l3.mem_side_port::system.mem_ctrls.port    107960256                       # Cumulative packet size per connected requestor and responder (Byte)
system.membus.pktSize_system.l3.mem_side_port::total    107960256                       # Cumulative packet size per connected requestor and responder (Byte)
system.membus.pktSize::total                107960256                       # Cumulative packet size per connected requestor and responder (Byte)
system.membus.snoops                             2985                       # Total snoops (Count)
system.membus.snoopTraffic                          0                       # Total snoop traffic (Byte)
system.membus.snoopFanout::samples            1233794                       # Request fanout histogram (Count)
system.membus.snoopFanout::mean                     0                       # Request fanout histogram (Count)
system.membus.snoopFanout::stdev                    0                       # Request fanout histogram (Count)
system.membus.snoopFanout::underflows               0      0.00%      0.00% # Request fanout histogram (Count)
system.membus.snoopFanout::0                  1233794    100.00%    100.00% # Request fanout histogram (Count)
system.membus.snoopFanout::1                        0      0.00%    100.00% # Request fanout histogram (Count)
system.membus.snoopFanout::overflows                0      0.00%    100.00% # Request fanout histogram (Count)
system.membus.snoopFanout::min_value                0                       # Request fanout histogram (Count)
system.membus.snoopFanout::max_value                0                       # Request fanout histogram (Count)
system.membus.snoopFanout::total              1233794                       # Request fanout histogram (Count)
system.membus.power_state.pwrStateResidencyTicks::UNDEFINED  67259374299                       # Cumulative time (in ticks) in various power states (Tick)
system.membus.reqLayer4.occupancy          4977018861                       # Layer occupancy (ticks) (Tick)
system.membus.reqLayer4.utilization               0.1                       # Layer utilization (Ratio)
system.membus.respLayer1.occupancy         6667673253                       # Layer occupancy (ticks) (Tick)
system.membus.respLayer1.utilization              0.1                       # Layer utilization (Ratio)
system.membus.snoop_filter.totRequests        2333271                       # Total number of requests made to the snoop filter. (Count)
system.membus.snoop_filter.hitSingleRequests      1104930                       # Number of requests hitting in the snoop filter with a single holder of the requested data. (Count)
system.membus.snoop_filter.hitMultiRequests            0                       # Number of requests hitting in the snoop filter with multiple (>1) holders of the requested data. (Count)
system.membus.snoop_filter.totSnoops                0                       # Total number of snoops made to the snoop filter. (Count)
system.membus.snoop_filter.hitSingleSnoops            0                       # Number of snoops hitting in the snoop filter with a single holder of the requested data. (Count)
system.membus.snoop_filter.hitMultiSnoops            0                       # Number of snoops hitting in the snoop filter with multiple (>1) holders of the requested data. (Count)
system.tol3bus.transDist::ReadResp             787683                       # Transaction distribution (Count)
system.tol3bus.transDist::WritebackDirty      1001125                       # Transaction distribution (Count)
system.tol3bus.transDist::CleanEvict          1545134                       # Transaction distribution (Count)
system.tol3bus.transDist::UpgradeReq             3374                       # Transaction distribution (Count)
system.tol3bus.transDist::UpgradeResp            3374                       # Transaction distribution (Count)
system.tol3bus.transDist::ReadExReq            530594                       # Transaction distribution (Count)
system.tol3bus.transDist::ReadExResp           530594                       # Transaction distribution (Count)
system.tol3bus.transDist::ReadSharedReq        787683                       # Transaction distribution (Count)
system.tol3bus.pktCount_system.cpu0.l2cache.mem_side_port::system.l3.cpu_side_port      1938756                       # Packet count per connected requestor and responder (Count)
system.tol3bus.pktCount_system.cpu1.l2cache.mem_side_port::system.l3.cpu_side_port      1919673                       # Packet count per connected requestor and responder (Count)
system.tol3bus.pktCount::total                3858429                       # Packet count per connected requestor and responder (Count)
system.tol3bus.pktSize_system.cpu0.l2cache.mem_side_port::system.l3.cpu_side_port     58984576                       # Cumulative packet size per connected requestor and responder (Byte)
system.tol3bus.pktSize_system.cpu1.l2cache.mem_side_port::system.l3.cpu_side_port     58457664                       # Cumulative packet size per connected requestor and responder (Byte)
system.tol3bus.pktSize::total               117442240                       # Cumulative packet size per connected requestor and responder (Byte)
system.tol3bus.snoops                         1331132                       # Total snoops (Count)
system.tol3bus.snoopTraffic                  30999488                       # Total snoop traffic (Byte)
system.tol3bus.snoopFanout::samples           2621553                       # Request fanout histogram (Count)
system.tol3bus.snoopFanout::mean             0.140478                       # Request fanout histogram (Count)
system.tol3bus.snoopFanout::stdev            0.353164                       # Request fanout histogram (Count)
system.tol3bus.snoopFanout::underflows              0      0.00%      0.00% # Request fanout histogram (Count)
system.tol3bus.snoopFanout::0                 2258501     86.15%     86.15% # Request fanout histogram (Count)
system.tol3bus.snoopFanout::1                  357834     13.65%     99.80% # Request fanout histogram (Count)
system.tol3bus.snoopFanout::2                    5218      0.20%    100.00% # Request fanout histogram (Count)
system.tol3bus.snoopFanout::overflows               0      0.00%    100.00% # Request fanout histogram (Count)
system.tol3bus.snoopFanout::min_value               0                       # Request fanout histogram (Count)
system.tol3bus.snoopFanout::max_value               2                       # Request fanout histogram (Count)
system.tol3bus.snoopFanout::total             2621553                       # Request fanout histogram (Count)
system.tol3bus.power_state.pwrStateResidencyTicks::UNDEFINED  67259374299                       # Cumulative time (in ticks) in various power states (Tick)
system.tol3bus.reqLayer0.occupancy         1218158280                       # Layer occupancy (ticks) (Tick)
system.tol3bus.reqLayer0.utilization              0.0                       # Layer utilization (Ratio)
system.tol3bus.respLayer0.occupancy         661545932                       # Layer occupancy (ticks) (Tick)
system.tol3bus.respLayer0.utilization             0.0                       # Layer utilization (Ratio)
system.tol3bus.respLayer1.occupancy         656661501                       # Layer occupancy (ticks) (Tick)
system.tol3bus.respLayer1.utilization             0.0                       # Layer utilization (Ratio)
system.tol3bus.snoop_filter.totRequests       2568008                       # Total number of requests made to the snoop filter. (Count)
system.tol3bus.snoop_filter.hitSingleRequests      1249654                       # Number of requests hitting in the snoop filter with a single holder of the requested data. (Count)
system.tol3bus.snoop_filter.hitMultiRequests        31396                       # Number of requests hitting in the snoop filter with multiple (>1) holders of the requested data. (Count)
system.tol3bus.snoop_filter.totSnoops          328365                       # Total number of snoops made to the snoop filter. (Count)
system.tol3bus.snoop_filter.hitSingleSnoops       323147                       # Number of snoops hitting in the snoop filter with a single holder of the requested data. (Count)
system.tol3bus.snoop_filter.hitMultiSnoops         5218                       # Number of snoops hitting in the snoop filter with multiple (>1) holders of the requested data. (Count)
system.voltage_domain.voltage                       1                       # Voltage in Volts (Volt)
system.workload.inst.arm                            0                       # number of arm instructions executed (Count)
system.workload.inst.quiesce                        0                       # number of quiesce instructions executed (Count)

---------- End Simulation Statistics   ----------
