
---------- Begin Simulation Statistics ----------
simSeconds                                   0.067322                       # Number of seconds simulated (Second)
simTicks                                  67321609002                       # Number of ticks simulated (Tick)
finalTick                                 67321609002                       # Number of ticks from beginning of simulation (restored from checkpoints and never reset) (Tick)
simFreq                                  1000000000000                       # The number of ticks per simulated second ((Tick/Second))
hostSeconds                                   1212.39                       # Real time elapsed on the host (Second)
hostTickRate                                 55527812                       # The number of ticks simulated per host second (ticks/s) ((Tick/Second))
hostMemory                                     771600                       # Number of bytes of host memory used (Byte)
simInsts                                    254224796                       # Number of instructions simulated (Count)
simOps                                      438136155                       # Number of ops (including micro ops) simulated (Count)
hostInstRate                                   209688                       # Simulator instruction rate (inst/s) ((Count/Second))
hostOpRate                                     361381                       # Simulator op (including micro ops) rate (op/s) ((Count/Second))
system.clk_domain.clock                          1000                       # Clock period in ticks (Tick)
system.cpu0.numCycles                       201929894                       # Number of cpu cycles simulated (Cycle)
system.cpu0.numWorkItemsStarted                     0                       # Number of work items this cpu started (Count)
system.cpu0.numWorkItemsCompleted                   0                       # Number of work items this cpu completed (Count)
system.cpu0.instsAdded                      219915960                       # Number of instructions added to the IQ (excludes non-spec) (Count)
system.cpu0.nonSpecInstsAdded                    1659                       # Number of non-speculative instructions added to the IQ (Count)
system.cpu0.instsIssued                     219744513                       # Number of instructions issued (Count)
system.cpu0.squashedInstsIssued                  3021                       # Number of squashed instructions issued (Count)
system.cpu0.squashedInstsExamined              660302                       # Number of squashed instructions iterated over during squash; mainly for profiling (Count)
system.cpu0.squashedOperandsExamined           815765                       # Number of squashed operands that are examined and possibly removed from graph (Count)
system.cpu0.squashedNonSpecRemoved                735                       # Number of squashed non-spec instructions that were removed (Count)
system.cpu0.numIssuedDist::samples          201688965                       # Number of insts issued each cycle (Count)
system.cpu0.numIssuedDist::mean              1.089522                       # Number of insts issued each cycle (Count)
system.cpu0.numIssuedDist::stdev             1.442712                       # Number of insts issued each cycle (Count)
system.cpu0.numIssuedDist::underflows               0      0.00%      0.00% # Number of insts issued each cycle (Count)
system.cpu0.numIssuedDist::0                100928686     50.04%     50.04% # Number of insts issued each cycle (Count)
system.cpu0.numIssuedDist::1                 37197807     18.44%     68.48% # Number of insts issued each cycle (Count)
system.cpu0.numIssuedDist::2                 34869471     17.29%     85.77% # Number of insts issued each cycle (Count)
system.cpu0.numIssuedDist::3                 14320355      7.10%     92.87% # Number of insts issued each cycle (Count)
system.cpu0.numIssuedDist::4                  6654680      3.30%     96.17% # Number of insts issued each cycle (Count)
system.cpu0.numIssuedDist::5                  4346722      2.16%     98.33% # Number of insts issued each cycle (Count)
system.cpu0.numIssuedDist::6                  2443892      1.21%     99.54% # Number of insts issued each cycle (Count)
system.cpu0.numIssuedDist::7                   587799      0.29%     99.83% # Number of insts issued each cycle (Count)
system.cpu0.numIssuedDist::8                   339553      0.17%    100.00% # Number of insts issued each cycle (Count)
system.cpu0.numIssuedDist::overflows                0      0.00%    100.00% # Number of insts issued each cycle (Count)
system.cpu0.numIssuedDist::min_value                0                       # Number of insts issued each cycle (Count)
system.cpu0.numIssuedDist::max_value                8                       # Number of insts issued each cycle (Count)
system.cpu0.numIssuedDist::total            201688965                       # Number of insts issued each cycle (Count)
system.cpu0.statFuBusy::No_OpClass                  0      0.00%      0.00% # attempts to use FU when none available (Count)
system.cpu0.statFuBusy::IntAlu                 375401     99.26%     99.26% # attempts to use FU when none available (Count)
system.cpu0.statFuBusy::IntMult                     0      0.00%     99.26% # attempts to use FU when none available (Count)
system.cpu0.statFuBusy::IntDiv                      0      0.00%     99.26% # attempts to use FU when none available (Count)
system.cpu0.statFuBusy::FloatAdd                    0      0.00%     99.26% # attempts to use FU when none available (Count)
system.cpu0.statFuBusy::FloatCmp                    0      0.00%     99.26% # attempts to use FU when none available (Count)
system.cpu0.statFuBusy::FloatCvt                    0      0.00%     99.26% # attempts to use FU when none available (Count)
system.cpu0.statFuBusy::FloatMult                   0      0.00%     99.26% # attempts to use FU when none available (Count)
system.cpu0.statFuBusy::FloatMultAcc                0      0.00%     99.26% # attempts to use FU when none available (Count)
system.cpu0.statFuBusy::FloatDiv                    0      0.00%     99.26% # attempts to use FU when none available (Count)
system.cpu0.statFuBusy::FloatMisc                   0      0.00%     99.26% # attempts to use FU when none available (Count)
system.cpu0.statFuBusy::FloatSqrt                   0      0.00%     99.26% # attempts to use FU when none available (Count)
system.cpu0.statFuBusy::SimdAdd                     0      0.00%     99.26% # attempts to use FU when none available (Count)
system.cpu0.statFuBusy::SimdAddAcc                  0      0.00%     99.26% # attempts to use FU when none available (Count)
system.cpu0.statFuBusy::SimdAlu                    52      0.01%     99.27% # attempts to use FU when none available (Count)
system.cpu0.statFuBusy::SimdCmp                     0      0.00%     99.27% # attempts to use FU when none available (Count)
system.cpu0.statFuBusy::SimdCvt                    68      0.02%     99.29% # attempts to use FU when none available (Count)
system.cpu0.statFuBusy::SimdMisc                    3      0.00%     99.29% # attempts to use FU when none available (Count)
system.cpu0.statFuBusy::SimdMult                    0      0.00%     99.29% # attempts to use FU when none available (Count)
system.cpu0.statFuBusy::SimdMultAcc                 0      0.00%     99.29% # attempts to use FU when none available (Count)
system.cpu0.statFuBusy::SimdShift                  10      0.00%     99.29% # attempts to use FU when none available (Count)
system.cpu0.statFuBusy::SimdShiftAcc                0      0.00%     99.29% # attempts to use FU when none available (Count)
system.cpu0.statFuBusy::SimdDiv                     0      0.00%     99.29% # attempts to use FU when none available (Count)
system.cpu0.statFuBusy::SimdSqrt                    0      0.00%     99.29% # attempts to use FU when none available (Count)
system.cpu0.statFuBusy::SimdFloatAdd                0      0.00%     99.29% # attempts to use FU when none available (Count)
system.cpu0.statFuBusy::SimdFloatAlu                0      0.00%     99.29% # attempts to use FU when none available (Count)
system.cpu0.statFuBusy::SimdFloatCmp                0      0.00%     99.29% # attempts to use FU when none available (Count)
system.cpu0.statFuBusy::SimdFloatCvt                0      0.00%     99.29% # attempts to use FU when none available (Count)
system.cpu0.statFuBusy::SimdFloatDiv                0      0.00%     99.29% # attempts to use FU when none available (Count)
system.cpu0.statFuBusy::SimdFloatMisc               0      0.00%     99.29% # attempts to use FU when none available (Count)
system.cpu0.statFuBusy::SimdFloatMult               0      0.00%     99.29% # attempts to use FU when none available (Count)
system.cpu0.statFuBusy::SimdFloatMultAcc            0      0.00%     99.29% # attempts to use FU when none available (Count)
system.cpu0.statFuBusy::SimdFloatSqrt               0      0.00%     99.29% # attempts to use FU when none available (Count)
system.cpu0.statFuBusy::SimdReduceAdd               0      0.00%     99.29% # attempts to use FU when none available (Count)
system.cpu0.statFuBusy::SimdReduceAlu               0      0.00%     99.29% # attempts to use FU when none available (Count)
system.cpu0.statFuBusy::SimdReduceCmp               0      0.00%     99.29% # attempts to use FU when none available (Count)
system.cpu0.statFuBusy::SimdFloatReduceAdd            0      0.00%     99.29% # attempts to use FU when none available (Count)
system.cpu0.statFuBusy::SimdFloatReduceCmp            0      0.00%     99.29% # attempts to use FU when none available (Count)
system.cpu0.statFuBusy::SimdAes                     0      0.00%     99.29% # attempts to use FU when none available (Count)
system.cpu0.statFuBusy::SimdAesMix                  0      0.00%     99.29% # attempts to use FU when none available (Count)
system.cpu0.statFuBusy::SimdSha1Hash                0      0.00%     99.29% # attempts to use FU when none available (Count)
system.cpu0.statFuBusy::SimdSha1Hash2               0      0.00%     99.29% # attempts to use FU when none available (Count)
system.cpu0.statFuBusy::SimdSha256Hash              0      0.00%     99.29% # attempts to use FU when none available (Count)
system.cpu0.statFuBusy::SimdSha256Hash2             0      0.00%     99.29% # attempts to use FU when none available (Count)
system.cpu0.statFuBusy::SimdShaSigma2               0      0.00%     99.29% # attempts to use FU when none available (Count)
system.cpu0.statFuBusy::SimdShaSigma3               0      0.00%     99.29% # attempts to use FU when none available (Count)
system.cpu0.statFuBusy::SimdPredAlu                 0      0.00%     99.29% # attempts to use FU when none available (Count)
system.cpu0.statFuBusy::MemRead                  1597      0.42%     99.72% # attempts to use FU when none available (Count)
system.cpu0.statFuBusy::MemWrite                  853      0.23%     99.94% # attempts to use FU when none available (Count)
system.cpu0.statFuBusy::FloatMemRead              117      0.03%     99.97% # attempts to use FU when none available (Count)
system.cpu0.statFuBusy::FloatMemWrite             106      0.03%    100.00% # attempts to use FU when none available (Count)
system.cpu0.statFuBusy::IprAccess                   0      0.00%    100.00% # attempts to use FU when none available (Count)
system.cpu0.statFuBusy::InstPrefetch                0      0.00%    100.00% # attempts to use FU when none available (Count)
system.cpu0.statIssuedInstType_0::No_OpClass      2108078      0.96%      0.96% # Number of instructions issued per FU type, per thread (Count)
system.cpu0.statIssuedInstType_0::IntAlu     89432633     40.70%     41.66% # Number of instructions issued per FU type, per thread (Count)
system.cpu0.statIssuedInstType_0::IntMult          120      0.00%     41.66% # Number of instructions issued per FU type, per thread (Count)
system.cpu0.statIssuedInstType_0::IntDiv         2406      0.00%     41.66% # Number of instructions issued per FU type, per thread (Count)
system.cpu0.statIssuedInstType_0::FloatAdd      6298709      2.87%     44.53% # Number of instructions issued per FU type, per thread (Count)
system.cpu0.statIssuedInstType_0::FloatCmp            0      0.00%     44.53% # Number of instructions issued per FU type, per thread (Count)
system.cpu0.statIssuedInstType_0::FloatCvt          212      0.00%     44.53% # Number of instructions issued per FU type, per thread (Count)
system.cpu0.statIssuedInstType_0::FloatMult            0      0.00%     44.53% # Number of instructions issued per FU type, per thread (Count)
system.cpu0.statIssuedInstType_0::FloatMultAcc            0      0.00%     44.53% # Number of instructions issued per FU type, per thread (Count)
system.cpu0.statIssuedInstType_0::FloatDiv            0      0.00%     44.53% # Number of instructions issued per FU type, per thread (Count)
system.cpu0.statIssuedInstType_0::FloatMisc            0      0.00%     44.53% # Number of instructions issued per FU type, per thread (Count)
system.cpu0.statIssuedInstType_0::FloatSqrt            0      0.00%     44.53% # Number of instructions issued per FU type, per thread (Count)
system.cpu0.statIssuedInstType_0::SimdAdd         1012      0.00%     44.53% # Number of instructions issued per FU type, per thread (Count)
system.cpu0.statIssuedInstType_0::SimdAddAcc            0      0.00%     44.53% # Number of instructions issued per FU type, per thread (Count)
system.cpu0.statIssuedInstType_0::SimdAlu     17839824      8.12%     52.64% # Number of instructions issued per FU type, per thread (Count)
system.cpu0.statIssuedInstType_0::SimdCmp            0      0.00%     52.64% # Number of instructions issued per FU type, per thread (Count)
system.cpu0.statIssuedInstType_0::SimdCvt         2846      0.00%     52.65% # Number of instructions issued per FU type, per thread (Count)
system.cpu0.statIssuedInstType_0::SimdMisc     17307817      7.88%     60.52% # Number of instructions issued per FU type, per thread (Count)
system.cpu0.statIssuedInstType_0::SimdMult            0      0.00%     60.52% # Number of instructions issued per FU type, per thread (Count)
system.cpu0.statIssuedInstType_0::SimdMultAcc            0      0.00%     60.52% # Number of instructions issued per FU type, per thread (Count)
system.cpu0.statIssuedInstType_0::SimdShift          993      0.00%     60.52% # Number of instructions issued per FU type, per thread (Count)
system.cpu0.statIssuedInstType_0::SimdShiftAcc            0      0.00%     60.52% # Number of instructions issued per FU type, per thread (Count)
system.cpu0.statIssuedInstType_0::SimdDiv            0      0.00%     60.52% # Number of instructions issued per FU type, per thread (Count)
system.cpu0.statIssuedInstType_0::SimdSqrt            0      0.00%     60.52% # Number of instructions issued per FU type, per thread (Count)
system.cpu0.statIssuedInstType_0::SimdFloatAdd     14158865      6.44%     66.97% # Number of instructions issued per FU type, per thread (Count)
system.cpu0.statIssuedInstType_0::SimdFloatAlu            0      0.00%     66.97% # Number of instructions issued per FU type, per thread (Count)
system.cpu0.statIssuedInstType_0::SimdFloatCmp            0      0.00%     66.97% # Number of instructions issued per FU type, per thread (Count)
system.cpu0.statIssuedInstType_0::SimdFloatCvt     17830938      8.11%     75.08% # Number of instructions issued per FU type, per thread (Count)
system.cpu0.statIssuedInstType_0::SimdFloatDiv            0      0.00%     75.08% # Number of instructions issued per FU type, per thread (Count)
system.cpu0.statIssuedInstType_0::SimdFloatMisc            0      0.00%     75.08% # Number of instructions issued per FU type, per thread (Count)
system.cpu0.statIssuedInstType_0::SimdFloatMult     28319761     12.89%     87.97% # Number of instructions issued per FU type, per thread (Count)
system.cpu0.statIssuedInstType_0::SimdFloatMultAcc            0      0.00%     87.97% # Number of instructions issued per FU type, per thread (Count)
system.cpu0.statIssuedInstType_0::SimdFloatSqrt            0      0.00%     87.97% # Number of instructions issued per FU type, per thread (Count)
system.cpu0.statIssuedInstType_0::SimdReduceAdd            0      0.00%     87.97% # Number of instructions issued per FU type, per thread (Count)
system.cpu0.statIssuedInstType_0::SimdReduceAlu            0      0.00%     87.97% # Number of instructions issued per FU type, per thread (Count)
system.cpu0.statIssuedInstType_0::SimdReduceCmp            0      0.00%     87.97% # Number of instructions issued per FU type, per thread (Count)
system.cpu0.statIssuedInstType_0::SimdFloatReduceAdd            0      0.00%     87.97% # Number of instructions issued per FU type, per thread (Count)
system.cpu0.statIssuedInstType_0::SimdFloatReduceCmp            0      0.00%     87.97% # Number of instructions issued per FU type, per thread (Count)
system.cpu0.statIssuedInstType_0::SimdAes            0      0.00%     87.97% # Number of instructions issued per FU type, per thread (Count)
system.cpu0.statIssuedInstType_0::SimdAesMix            0      0.00%     87.97% # Number of instructions issued per FU type, per thread (Count)
system.cpu0.statIssuedInstType_0::SimdSha1Hash            0      0.00%     87.97% # Number of instructions issued per FU type, per thread (Count)
system.cpu0.statIssuedInstType_0::SimdSha1Hash2            0      0.00%     87.97% # Number of instructions issued per FU type, per thread (Count)
system.cpu0.statIssuedInstType_0::SimdSha256Hash            0      0.00%     87.97% # Number of instructions issued per FU type, per thread (Count)
system.cpu0.statIssuedInstType_0::SimdSha256Hash2            0      0.00%     87.97% # Number of instructions issued per FU type, per thread (Count)
system.cpu0.statIssuedInstType_0::SimdShaSigma2            0      0.00%     87.97% # Number of instructions issued per FU type, per thread (Count)
system.cpu0.statIssuedInstType_0::SimdShaSigma3            0      0.00%     87.97% # Number of instructions issued per FU type, per thread (Count)
system.cpu0.statIssuedInstType_0::SimdPredAlu            0      0.00%     87.97% # Number of instructions issued per FU type, per thread (Count)
system.cpu0.statIssuedInstType_0::MemRead     10104875      4.60%     92.57% # Number of instructions issued per FU type, per thread (Count)
system.cpu0.statIssuedInstType_0::MemWrite      7407595      3.37%     95.94% # Number of instructions issued per FU type, per thread (Count)
system.cpu0.statIssuedInstType_0::FloatMemRead      8924936      4.06%    100.00% # Number of instructions issued per FU type, per thread (Count)
system.cpu0.statIssuedInstType_0::FloatMemWrite         2893      0.00%    100.00% # Number of instructions issued per FU type, per thread (Count)
system.cpu0.statIssuedInstType_0::IprAccess            0      0.00%    100.00% # Number of instructions issued per FU type, per thread (Count)
system.cpu0.statIssuedInstType_0::InstPrefetch            0      0.00%    100.00% # Number of instructions issued per FU type, per thread (Count)
system.cpu0.statIssuedInstType_0::total     219744513                       # Number of instructions issued per FU type, per thread (Count)
system.cpu0.issueRate                        1.088222                       # Inst issue rate ((Count/Cycle))
system.cpu0.fuBusy                             378207                       # FU busy when requested (Count)
system.cpu0.fuBusyRate                       0.001721                       # FU busy rate (busy events/executed inst) ((Count/Count))
system.cpu0.intInstQueueReads               361426540                       # Number of integer instruction queue reads (Count)
system.cpu0.intInstQueueWrites               80314777                       # Number of integer instruction queue writes (Count)
system.cpu0.intInstQueueWakeupAccesses       79648227                       # Number of integer instruction queue wakeup accesses (Count)
system.cpu0.fpInstQueueReads                280132679                       # Number of floating instruction queue reads (Count)
system.cpu0.fpInstQueueWrites               140263334                       # Number of floating instruction queue writes (Count)
system.cpu0.fpInstQueueWakeupAccesses       140062581                       # Number of floating instruction queue wakeup accesses (Count)
system.cpu0.vecInstQueueReads                       0                       # Number of vector instruction queue reads (Count)
system.cpu0.vecInstQueueWrites                      0                       # Number of vector instruction queue writes (Count)
system.cpu0.vecInstQueueWakeupAccesses              0                       # Number of vector instruction queue wakeup accesses (Count)
system.cpu0.intAluAccesses                   77948198                       # Number of integer alu accesses (Count)
system.cpu0.fpAluAccesses                   140066444                       # Number of floating point alu accesses (Count)
system.cpu0.vecAluAccesses                          0                       # Number of vector alu accesses (Count)
system.cpu0.numInsts                        219729352                       # Number of executed instructions (Count)
system.cpu0.numLoadInsts                     19025992                       # Number of load instructions executed (Count)
system.cpu0.numSquashedInsts                    15161                       # Number of squashed instructions skipped in execute (Count)
system.cpu0.numSwp                                  0                       # Number of swp insts executed (Count)
system.cpu0.numNop                                  0                       # Number of nop insts executed (Count)
system.cpu0.numRefs                          26435747                       # Number of memory reference insts executed (Count)
system.cpu0.numBranches                       7965385                       # Number of branches executed (Count)
system.cpu0.numStoreInsts                     7409755                       # Number of stores executed (Count)
system.cpu0.numRate                          1.088147                       # Inst execution rate ((Count/Cycle))
system.cpu0.timesIdled                           1240                       # Number of times that the entire CPU went into an idle state and unscheduled itself (Count)
system.cpu0.idleCycles                         240929                       # Total number of cycles that the CPU has spent unscheduled due to idling (Cycle)
system.cpu0.quiesceCycles                      237101                       # Total number of cycles that CPU has spent quiesced or waiting for an interrupt (Cycle)
system.cpu0.committedInsts                  127215461                       # Number of Instructions Simulated (Count)
system.cpu0.committedOps                    219257311                       # Number of Ops (including micro ops) Simulated (Count)
system.cpu0.cpi                              1.587306                       # CPI: Cycles Per Instruction ((Cycle/Count))
system.cpu0.totalCpi                         1.587306                       # CPI: Total CPI of All Threads ((Cycle/Count))
system.cpu0.ipc                              0.629998                       # IPC: Instructions Per Cycle ((Count/Cycle))
system.cpu0.totalIpc                         0.629998                       # IPC: Total IPC of All Threads ((Count/Cycle))
system.cpu0.intRegfileReads                 124029077                       # Number of integer regfile reads (Count)
system.cpu0.intRegfileWrites                 67345647                       # Number of integer regfile writes (Count)
system.cpu0.fpRegfileReads                  274854367                       # Number of floating regfile reads (Count)
system.cpu0.fpRegfileWrites                 131144608                       # Number of floating regfile writes (Count)
system.cpu0.ccRegfileReads                   25155490                       # number of cc regfile reads (Count)
system.cpu0.ccRegfileWrites                  33976049                       # number of cc regfile writes (Count)
system.cpu0.miscRegfileReads                 49214255                       # number of misc regfile reads (Count)
system.cpu0.miscRegfileWrites                     108                       # number of misc regfile writes (Count)
system.cpu0.MemDepUnit__0.insertedLoads      19043213                       # Number of loads inserted to the mem dependence unit. (Count)
system.cpu0.MemDepUnit__0.insertedStores      7419856                       # Number of stores inserted to the mem dependence unit. (Count)
system.cpu0.MemDepUnit__0.conflictingLoads      4613870                       # Number of conflicting loads. (Count)
system.cpu0.MemDepUnit__0.conflictingStores      4111056                       # Number of conflicting stores. (Count)
system.cpu0.MemDepUnit__1.insertedLoads             0                       # Number of loads inserted to the mem dependence unit. (Count)
system.cpu0.MemDepUnit__1.insertedStores            0                       # Number of stores inserted to the mem dependence unit. (Count)
system.cpu0.MemDepUnit__1.conflictingLoads            0                       # Number of conflicting loads. (Count)
system.cpu0.MemDepUnit__1.conflictingStores            0                       # Number of conflicting stores. (Count)
system.cpu0.MemDepUnit__2.insertedLoads             0                       # Number of loads inserted to the mem dependence unit. (Count)
system.cpu0.MemDepUnit__2.insertedStores            0                       # Number of stores inserted to the mem dependence unit. (Count)
system.cpu0.MemDepUnit__2.conflictingLoads            0                       # Number of conflicting loads. (Count)
system.cpu0.MemDepUnit__2.conflictingStores            0                       # Number of conflicting stores. (Count)
system.cpu0.MemDepUnit__3.insertedLoads             0                       # Number of loads inserted to the mem dependence unit. (Count)
system.cpu0.MemDepUnit__3.insertedStores            0                       # Number of stores inserted to the mem dependence unit. (Count)
system.cpu0.MemDepUnit__3.conflictingLoads            0                       # Number of conflicting loads. (Count)
system.cpu0.MemDepUnit__3.conflictingStores            0                       # Number of conflicting stores. (Count)
system.cpu0.branchPred.lookups                8010964                       # Number of BP lookups (Count)
system.cpu0.branchPred.condPredicted          3790027                       # Number of conditional branches predicted (Count)
system.cpu0.branchPred.condIncorrect             7106                       # Number of conditional branches incorrect (Count)
system.cpu0.branchPred.BTBLookups             5844824                       # Number of BTB lookups (Count)
system.cpu0.branchPred.BTBHits                5841785                       # Number of BTB hits (Count)
system.cpu0.branchPred.BTBHitRatio           0.999480                       # BTB Hit Ratio (Ratio)
system.cpu0.branchPred.RASUsed                2102184                       # Number of times the RAS was used to get a target. (Count)
system.cpu0.branchPred.RASIncorrect                 7                       # Number of incorrect RAS predictions. (Count)
system.cpu0.branchPred.indirectLookups           4082                       # Number of indirect predictor lookups. (Count)
system.cpu0.branchPred.indirectHits               544                       # Number of indirect target hits. (Count)
system.cpu0.branchPred.indirectMisses            3538                       # Number of indirect misses. (Count)
system.cpu0.branchPred.indirectMispredicted          617                       # Number of mispredicted indirect branches. (Count)
system.cpu0.commit.commitSquashedInsts         628792                       # The number of squashed insts skipped by commit (Count)
system.cpu0.commit.commitNonSpecStalls            924                       # The number of times commit has been forced to stall to communicate backwards (Count)
system.cpu0.commit.branchMispredicts             6978                       # The number of times a branch was mispredicted (Count)
system.cpu0.commit.numCommittedDist::samples    201602291                       # Number of insts commited each cycle (Count)
system.cpu0.commit.numCommittedDist::mean     1.087574                       # Number of insts commited each cycle (Count)
system.cpu0.commit.numCommittedDist::stdev     1.831214                       # Number of insts commited each cycle (Count)
system.cpu0.commit.numCommittedDist::underflows            0      0.00%      0.00% # Number of insts commited each cycle (Count)
system.cpu0.commit.numCommittedDist::0      106283411     52.72%     52.72% # Number of insts commited each cycle (Count)
system.cpu0.commit.numCommittedDist::1       54694014     27.13%     79.85% # Number of insts commited each cycle (Count)
system.cpu0.commit.numCommittedDist::2       10756203      5.34%     85.18% # Number of insts commited each cycle (Count)
system.cpu0.commit.numCommittedDist::3       13435236      6.66%     91.85% # Number of insts commited each cycle (Count)
system.cpu0.commit.numCommittedDist::4        4911638      2.44%     94.28% # Number of insts commited each cycle (Count)
system.cpu0.commit.numCommittedDist::5        2493589      1.24%     95.52% # Number of insts commited each cycle (Count)
system.cpu0.commit.numCommittedDist::6         528773      0.26%     95.78% # Number of insts commited each cycle (Count)
system.cpu0.commit.numCommittedDist::7         537368      0.27%     96.05% # Number of insts commited each cycle (Count)
system.cpu0.commit.numCommittedDist::8        7962059      3.95%    100.00% # Number of insts commited each cycle (Count)
system.cpu0.commit.numCommittedDist::overflows            0      0.00%    100.00% # Number of insts commited each cycle (Count)
system.cpu0.commit.numCommittedDist::min_value            0                       # Number of insts commited each cycle (Count)
system.cpu0.commit.numCommittedDist::max_value            8                       # Number of insts commited each cycle (Count)
system.cpu0.commit.numCommittedDist::total    201602291                       # Number of insts commited each cycle (Count)
system.cpu0.commit.instsCommitted           127215461                       # Number of instructions committed (Count)
system.cpu0.commit.opsCommitted             219257311                       # Number of ops (including micro ops) committed (Count)
system.cpu0.commit.memRefs                   26345647                       # Number of memory references committed (Count)
system.cpu0.commit.loads                     18962344                       # Number of loads committed (Count)
system.cpu0.commit.amos                             0                       # Number of atomic instructions committed (Count)
system.cpu0.commit.membars                        544                       # Number of memory barriers committed (Count)
system.cpu0.commit.branches                   7934211                       # Number of branches committed (Count)
system.cpu0.commit.vectorInstructions               0                       # Number of committed Vector instructions. (Count)
system.cpu0.commit.floating                 139997694                       # Number of committed floating point instructions. (Count)
system.cpu0.commit.integer                  103378578                       # Number of committed integer instructions. (Count)
system.cpu0.commit.functionCalls              2098795                       # Number of function calls committed. (Count)
system.cpu0.commit.committedInstType_0::No_OpClass      2099787      0.96%      0.96% # Class of committed instruction (Count)
system.cpu0.commit.committedInstType_0::IntAlu     89090421     40.63%     41.59% # Class of committed instruction (Count)
system.cpu0.commit.committedInstType_0::IntMult          101      0.00%     41.59% # Class of committed instruction (Count)
system.cpu0.commit.committedInstType_0::IntDiv         2165      0.00%     41.59% # Class of committed instruction (Count)
system.cpu0.commit.committedInstType_0::FloatAdd      6292129      2.87%     44.46% # Class of committed instruction (Count)
system.cpu0.commit.committedInstType_0::FloatCmp            0      0.00%     44.46% # Class of committed instruction (Count)
system.cpu0.commit.committedInstType_0::FloatCvt          192      0.00%     44.46% # Class of committed instruction (Count)
system.cpu0.commit.committedInstType_0::FloatMult            0      0.00%     44.46% # Class of committed instruction (Count)
system.cpu0.commit.committedInstType_0::FloatMultAcc            0      0.00%     44.46% # Class of committed instruction (Count)
system.cpu0.commit.committedInstType_0::FloatDiv            0      0.00%     44.46% # Class of committed instruction (Count)
system.cpu0.commit.committedInstType_0::FloatMisc            0      0.00%     44.46% # Class of committed instruction (Count)
system.cpu0.commit.committedInstType_0::FloatSqrt            0      0.00%     44.46% # Class of committed instruction (Count)
system.cpu0.commit.committedInstType_0::SimdAdd          732      0.00%     44.46% # Class of committed instruction (Count)
system.cpu0.commit.committedInstType_0::SimdAddAcc            0      0.00%     44.46% # Class of committed instruction (Count)
system.cpu0.commit.committedInstType_0::SimdAlu     17827411      8.13%     52.59% # Class of committed instruction (Count)
system.cpu0.commit.committedInstType_0::SimdCmp            0      0.00%     52.59% # Class of committed instruction (Count)
system.cpu0.commit.committedInstType_0::SimdCvt         1824      0.00%     52.59% # Class of committed instruction (Count)
system.cpu0.commit.committedInstType_0::SimdMisc     17303328      7.89%     60.49% # Class of committed instruction (Count)
system.cpu0.commit.committedInstType_0::SimdMult            0      0.00%     60.49% # Class of committed instruction (Count)
system.cpu0.commit.committedInstType_0::SimdMultAcc            0      0.00%     60.49% # Class of committed instruction (Count)
system.cpu0.commit.committedInstType_0::SimdShift          382      0.00%     60.49% # Class of committed instruction (Count)
system.cpu0.commit.committedInstType_0::SimdShiftAcc            0      0.00%     60.49% # Class of committed instruction (Count)
system.cpu0.commit.committedInstType_0::SimdDiv            0      0.00%     60.49% # Class of committed instruction (Count)
system.cpu0.commit.committedInstType_0::SimdSqrt            0      0.00%     60.49% # Class of committed instruction (Count)
system.cpu0.commit.committedInstType_0::SimdFloatAdd     14155794      6.46%     66.94% # Class of committed instruction (Count)
system.cpu0.commit.committedInstType_0::SimdFloatAlu            0      0.00%     66.94% # Class of committed instruction (Count)
system.cpu0.commit.committedInstType_0::SimdFloatCmp            0      0.00%     66.94% # Class of committed instruction (Count)
system.cpu0.commit.committedInstType_0::SimdFloatCvt     17825821      8.13%     75.07% # Class of committed instruction (Count)
system.cpu0.commit.committedInstType_0::SimdFloatDiv            0      0.00%     75.07% # Class of committed instruction (Count)
system.cpu0.commit.committedInstType_0::SimdFloatMisc            0      0.00%     75.07% # Class of committed instruction (Count)
system.cpu0.commit.committedInstType_0::SimdFloatMult     28311577     12.91%     87.98% # Class of committed instruction (Count)
system.cpu0.commit.committedInstType_0::SimdFloatMultAcc            0      0.00%     87.98% # Class of committed instruction (Count)
system.cpu0.commit.committedInstType_0::SimdFloatSqrt            0      0.00%     87.98% # Class of committed instruction (Count)
system.cpu0.commit.committedInstType_0::SimdReduceAdd            0      0.00%     87.98% # Class of committed instruction (Count)
system.cpu0.commit.committedInstType_0::SimdReduceAlu            0      0.00%     87.98% # Class of committed instruction (Count)
system.cpu0.commit.committedInstType_0::SimdReduceCmp            0      0.00%     87.98% # Class of committed instruction (Count)
system.cpu0.commit.committedInstType_0::SimdFloatReduceAdd            0      0.00%     87.98% # Class of committed instruction (Count)
system.cpu0.commit.committedInstType_0::SimdFloatReduceCmp            0      0.00%     87.98% # Class of committed instruction (Count)
system.cpu0.commit.committedInstType_0::SimdAes            0      0.00%     87.98% # Class of committed instruction (Count)
system.cpu0.commit.committedInstType_0::SimdAesMix            0      0.00%     87.98% # Class of committed instruction (Count)
system.cpu0.commit.committedInstType_0::SimdSha1Hash            0      0.00%     87.98% # Class of committed instruction (Count)
system.cpu0.commit.committedInstType_0::SimdSha1Hash2            0      0.00%     87.98% # Class of committed instruction (Count)
system.cpu0.commit.committedInstType_0::SimdSha256Hash            0      0.00%     87.98% # Class of committed instruction (Count)
system.cpu0.commit.committedInstType_0::SimdSha256Hash2            0      0.00%     87.98% # Class of committed instruction (Count)
system.cpu0.commit.committedInstType_0::SimdShaSigma2            0      0.00%     87.98% # Class of committed instruction (Count)
system.cpu0.commit.committedInstType_0::SimdShaSigma3            0      0.00%     87.98% # Class of committed instruction (Count)
system.cpu0.commit.committedInstType_0::SimdPredAlu            0      0.00%     87.98% # Class of committed instruction (Count)
system.cpu0.commit.committedInstType_0::MemRead     10046988      4.58%     92.57% # Class of committed instruction (Count)
system.cpu0.commit.committedInstType_0::MemWrite      7380900      3.37%     95.93% # Class of committed instruction (Count)
system.cpu0.commit.committedInstType_0::FloatMemRead      8915356      4.07%    100.00% # Class of committed instruction (Count)
system.cpu0.commit.committedInstType_0::FloatMemWrite         2403      0.00%    100.00% # Class of committed instruction (Count)
system.cpu0.commit.committedInstType_0::IprAccess            0      0.00%    100.00% # Class of committed instruction (Count)
system.cpu0.commit.committedInstType_0::InstPrefetch            0      0.00%    100.00% # Class of committed instruction (Count)
system.cpu0.commit.committedInstType_0::total    219257311                       # Class of committed instruction (Count)
system.cpu0.commit.commitEligibleSamples      7962059                       # number cycles where commit BW limit reached (Cycle)
system.cpu0.dcache.demandHits::cpu0.data     20410559                       # number of demand (read+write) hits (Count)
system.cpu0.dcache.demandHits::total         20410559                       # number of demand (read+write) hits (Count)
system.cpu0.dcache.overallHits::cpu0.data     20410559                       # number of overall hits (Count)
system.cpu0.dcache.overallHits::total        20410559                       # number of overall hits (Count)
system.cpu0.dcache.demandMisses::cpu0.data      3622067                       # number of demand (read+write) misses (Count)
system.cpu0.dcache.demandMisses::total        3622067                       # number of demand (read+write) misses (Count)
system.cpu0.dcache.overallMisses::cpu0.data      3622067                       # number of overall misses (Count)
system.cpu0.dcache.overallMisses::total       3622067                       # number of overall misses (Count)
system.cpu0.dcache.demandMissLatency::cpu0.data 220301416725                       # number of demand (read+write) miss ticks (Tick)
system.cpu0.dcache.demandMissLatency::total 220301416725                       # number of demand (read+write) miss ticks (Tick)
system.cpu0.dcache.overallMissLatency::cpu0.data 220301416725                       # number of overall miss ticks (Tick)
system.cpu0.dcache.overallMissLatency::total 220301416725                       # number of overall miss ticks (Tick)
system.cpu0.dcache.demandAccesses::cpu0.data     24032626                       # number of demand (read+write) accesses (Count)
system.cpu0.dcache.demandAccesses::total     24032626                       # number of demand (read+write) accesses (Count)
system.cpu0.dcache.overallAccesses::cpu0.data     24032626                       # number of overall (read+write) accesses (Count)
system.cpu0.dcache.overallAccesses::total     24032626                       # number of overall (read+write) accesses (Count)
system.cpu0.dcache.demandMissRate::cpu0.data     0.150715                       # miss rate for demand accesses (Ratio)
system.cpu0.dcache.demandMissRate::total     0.150715                       # miss rate for demand accesses (Ratio)
system.cpu0.dcache.overallMissRate::cpu0.data     0.150715                       # miss rate for overall accesses (Ratio)
system.cpu0.dcache.overallMissRate::total     0.150715                       # miss rate for overall accesses (Ratio)
system.cpu0.dcache.demandAvgMissLatency::cpu0.data 60822.015917                       # average overall miss latency in ticks ((Tick/Count))
system.cpu0.dcache.demandAvgMissLatency::total 60822.015917                       # average overall miss latency in ticks ((Tick/Count))
system.cpu0.dcache.overallAvgMissLatency::cpu0.data 60822.015917                       # average overall miss latency ((Tick/Count))
system.cpu0.dcache.overallAvgMissLatency::total 60822.015917                       # average overall miss latency ((Tick/Count))
system.cpu0.dcache.blockedCycles::no_mshrs        37439                       # number of cycles access was blocked (Cycle)
system.cpu0.dcache.blockedCycles::no_targets            6                       # number of cycles access was blocked (Cycle)
system.cpu0.dcache.blockedCauses::no_mshrs          578                       # number of times access was blocked (Count)
system.cpu0.dcache.blockedCauses::no_targets            2                       # number of times access was blocked (Count)
system.cpu0.dcache.avgBlocked::no_mshrs     64.773356                       # average number of cycles each access was blocked ((Cycle/Count))
system.cpu0.dcache.avgBlocked::no_targets            3                       # average number of cycles each access was blocked ((Cycle/Count))
system.cpu0.dcache.writebacks::writebacks       969280                       # number of writebacks (Count)
system.cpu0.dcache.writebacks::total           969280                       # number of writebacks (Count)
system.cpu0.dcache.demandMshrHits::cpu0.data      2256318                       # number of demand (read+write) MSHR hits (Count)
system.cpu0.dcache.demandMshrHits::total      2256318                       # number of demand (read+write) MSHR hits (Count)
system.cpu0.dcache.overallMshrHits::cpu0.data      2256318                       # number of overall MSHR hits (Count)
system.cpu0.dcache.overallMshrHits::total      2256318                       # number of overall MSHR hits (Count)
system.cpu0.dcache.demandMshrMisses::cpu0.data      1365749                       # number of demand (read+write) MSHR misses (Count)
system.cpu0.dcache.demandMshrMisses::total      1365749                       # number of demand (read+write) MSHR misses (Count)
system.cpu0.dcache.overallMshrMisses::cpu0.data      1365749                       # number of overall MSHR misses (Count)
system.cpu0.dcache.overallMshrMisses::total      1365749                       # number of overall MSHR misses (Count)
system.cpu0.dcache.demandMshrMissLatency::cpu0.data  70875775941                       # number of demand (read+write) MSHR miss ticks (Tick)
system.cpu0.dcache.demandMshrMissLatency::total  70875775941                       # number of demand (read+write) MSHR miss ticks (Tick)
system.cpu0.dcache.overallMshrMissLatency::cpu0.data  70875775941                       # number of overall MSHR miss ticks (Tick)
system.cpu0.dcache.overallMshrMissLatency::total  70875775941                       # number of overall MSHR miss ticks (Tick)
system.cpu0.dcache.demandMshrMissRate::cpu0.data     0.056829                       # mshr miss ratio for demand accesses (Ratio)
system.cpu0.dcache.demandMshrMissRate::total     0.056829                       # mshr miss ratio for demand accesses (Ratio)
system.cpu0.dcache.overallMshrMissRate::cpu0.data     0.056829                       # mshr miss ratio for overall accesses (Ratio)
system.cpu0.dcache.overallMshrMissRate::total     0.056829                       # mshr miss ratio for overall accesses (Ratio)
system.cpu0.dcache.demandAvgMshrMissLatency::cpu0.data 51895.169567                       # average overall mshr miss latency ((Tick/Count))
system.cpu0.dcache.demandAvgMshrMissLatency::total 51895.169567                       # average overall mshr miss latency ((Tick/Count))
system.cpu0.dcache.overallAvgMshrMissLatency::cpu0.data 51895.169567                       # average overall mshr miss latency ((Tick/Count))
system.cpu0.dcache.overallAvgMshrMissLatency::total 51895.169567                       # average overall mshr miss latency ((Tick/Count))
system.cpu0.dcache.replacements               1361851                       # number of replacements (Count)
system.cpu0.dcache.LockedRMWReadReq.hits::cpu0.data          226                       # number of LockedRMWReadReq hits (Count)
system.cpu0.dcache.LockedRMWReadReq.hits::total          226                       # number of LockedRMWReadReq hits (Count)
system.cpu0.dcache.LockedRMWReadReq.misses::cpu0.data           46                       # number of LockedRMWReadReq misses (Count)
system.cpu0.dcache.LockedRMWReadReq.misses::total           46                       # number of LockedRMWReadReq misses (Count)
system.cpu0.dcache.LockedRMWReadReq.missLatency::cpu0.data      1125207                       # number of LockedRMWReadReq miss ticks (Tick)
system.cpu0.dcache.LockedRMWReadReq.missLatency::total      1125207                       # number of LockedRMWReadReq miss ticks (Tick)
system.cpu0.dcache.LockedRMWReadReq.accesses::cpu0.data          272                       # number of LockedRMWReadReq accesses(hits+misses) (Count)
system.cpu0.dcache.LockedRMWReadReq.accesses::total          272                       # number of LockedRMWReadReq accesses(hits+misses) (Count)
system.cpu0.dcache.LockedRMWReadReq.missRate::cpu0.data     0.169118                       # miss rate for LockedRMWReadReq accesses (Ratio)
system.cpu0.dcache.LockedRMWReadReq.missRate::total     0.169118                       # miss rate for LockedRMWReadReq accesses (Ratio)
system.cpu0.dcache.LockedRMWReadReq.avgMissLatency::cpu0.data 24461.021739                       # average LockedRMWReadReq miss latency ((Tick/Count))
system.cpu0.dcache.LockedRMWReadReq.avgMissLatency::total 24461.021739                       # average LockedRMWReadReq miss latency ((Tick/Count))
system.cpu0.dcache.LockedRMWReadReq.mshrHits::cpu0.data            1                       # number of LockedRMWReadReq MSHR hits (Count)
system.cpu0.dcache.LockedRMWReadReq.mshrHits::total            1                       # number of LockedRMWReadReq MSHR hits (Count)
system.cpu0.dcache.LockedRMWReadReq.mshrMisses::cpu0.data           45                       # number of LockedRMWReadReq MSHR misses (Count)
system.cpu0.dcache.LockedRMWReadReq.mshrMisses::total           45                       # number of LockedRMWReadReq MSHR misses (Count)
system.cpu0.dcache.LockedRMWReadReq.mshrMissLatency::cpu0.data      2946384                       # number of LockedRMWReadReq MSHR miss ticks (Tick)
system.cpu0.dcache.LockedRMWReadReq.mshrMissLatency::total      2946384                       # number of LockedRMWReadReq MSHR miss ticks (Tick)
system.cpu0.dcache.LockedRMWReadReq.mshrMissRate::cpu0.data     0.165441                       # mshr miss rate for LockedRMWReadReq accesses (Ratio)
system.cpu0.dcache.LockedRMWReadReq.mshrMissRate::total     0.165441                       # mshr miss rate for LockedRMWReadReq accesses (Ratio)
system.cpu0.dcache.LockedRMWReadReq.avgMshrMissLatency::cpu0.data 65475.200000                       # average LockedRMWReadReq mshr miss latency ((Tick/Count))
system.cpu0.dcache.LockedRMWReadReq.avgMshrMissLatency::total 65475.200000                       # average LockedRMWReadReq mshr miss latency ((Tick/Count))
system.cpu0.dcache.LockedRMWWriteReq.hits::cpu0.data          272                       # number of LockedRMWWriteReq hits (Count)
system.cpu0.dcache.LockedRMWWriteReq.hits::total          272                       # number of LockedRMWWriteReq hits (Count)
system.cpu0.dcache.LockedRMWWriteReq.accesses::cpu0.data          272                       # number of LockedRMWWriteReq accesses(hits+misses) (Count)
system.cpu0.dcache.LockedRMWWriteReq.accesses::total          272                       # number of LockedRMWWriteReq accesses(hits+misses) (Count)
system.cpu0.dcache.ReadReq.hits::cpu0.data     13933917                       # number of ReadReq hits (Count)
system.cpu0.dcache.ReadReq.hits::total       13933917                       # number of ReadReq hits (Count)
system.cpu0.dcache.ReadReq.misses::cpu0.data      2715677                       # number of ReadReq misses (Count)
system.cpu0.dcache.ReadReq.misses::total      2715677                       # number of ReadReq misses (Count)
system.cpu0.dcache.ReadReq.missLatency::cpu0.data 185906213361                       # number of ReadReq miss ticks (Tick)
system.cpu0.dcache.ReadReq.missLatency::total 185906213361                       # number of ReadReq miss ticks (Tick)
system.cpu0.dcache.ReadReq.accesses::cpu0.data     16649594                       # number of ReadReq accesses(hits+misses) (Count)
system.cpu0.dcache.ReadReq.accesses::total     16649594                       # number of ReadReq accesses(hits+misses) (Count)
system.cpu0.dcache.ReadReq.missRate::cpu0.data     0.163108                       # miss rate for ReadReq accesses (Ratio)
system.cpu0.dcache.ReadReq.missRate::total     0.163108                       # miss rate for ReadReq accesses (Ratio)
system.cpu0.dcache.ReadReq.avgMissLatency::cpu0.data 68456.673368                       # average ReadReq miss latency ((Tick/Count))
system.cpu0.dcache.ReadReq.avgMissLatency::total 68456.673368                       # average ReadReq miss latency ((Tick/Count))
system.cpu0.dcache.ReadReq.mshrHits::cpu0.data      2256309                       # number of ReadReq MSHR hits (Count)
system.cpu0.dcache.ReadReq.mshrHits::total      2256309                       # number of ReadReq MSHR hits (Count)
system.cpu0.dcache.ReadReq.mshrMisses::cpu0.data       459368                       # number of ReadReq MSHR misses (Count)
system.cpu0.dcache.ReadReq.mshrMisses::total       459368                       # number of ReadReq MSHR misses (Count)
system.cpu0.dcache.ReadReq.mshrMissLatency::cpu0.data  37084540671                       # number of ReadReq MSHR miss ticks (Tick)
system.cpu0.dcache.ReadReq.mshrMissLatency::total  37084540671                       # number of ReadReq MSHR miss ticks (Tick)
system.cpu0.dcache.ReadReq.mshrMissRate::cpu0.data     0.027590                       # mshr miss rate for ReadReq accesses (Ratio)
system.cpu0.dcache.ReadReq.mshrMissRate::total     0.027590                       # mshr miss rate for ReadReq accesses (Ratio)
system.cpu0.dcache.ReadReq.avgMshrMissLatency::cpu0.data 80729.481964                       # average ReadReq mshr miss latency ((Tick/Count))
system.cpu0.dcache.ReadReq.avgMshrMissLatency::total 80729.481964                       # average ReadReq mshr miss latency ((Tick/Count))
system.cpu0.dcache.WriteReq.hits::cpu0.data      6476642                       # number of WriteReq hits (Count)
system.cpu0.dcache.WriteReq.hits::total       6476642                       # number of WriteReq hits (Count)
system.cpu0.dcache.WriteReq.misses::cpu0.data       906390                       # number of WriteReq misses (Count)
system.cpu0.dcache.WriteReq.misses::total       906390                       # number of WriteReq misses (Count)
system.cpu0.dcache.WriteReq.missLatency::cpu0.data  34395203364                       # number of WriteReq miss ticks (Tick)
system.cpu0.dcache.WriteReq.missLatency::total  34395203364                       # number of WriteReq miss ticks (Tick)
system.cpu0.dcache.WriteReq.accesses::cpu0.data      7383032                       # number of WriteReq accesses(hits+misses) (Count)
system.cpu0.dcache.WriteReq.accesses::total      7383032                       # number of WriteReq accesses(hits+misses) (Count)
system.cpu0.dcache.WriteReq.missRate::cpu0.data     0.122767                       # miss rate for WriteReq accesses (Ratio)
system.cpu0.dcache.WriteReq.missRate::total     0.122767                       # miss rate for WriteReq accesses (Ratio)
system.cpu0.dcache.WriteReq.avgMissLatency::cpu0.data 37947.465621                       # average WriteReq miss latency ((Tick/Count))
system.cpu0.dcache.WriteReq.avgMissLatency::total 37947.465621                       # average WriteReq miss latency ((Tick/Count))
system.cpu0.dcache.WriteReq.mshrHits::cpu0.data            9                       # number of WriteReq MSHR hits (Count)
system.cpu0.dcache.WriteReq.mshrHits::total            9                       # number of WriteReq MSHR hits (Count)
system.cpu0.dcache.WriteReq.mshrMisses::cpu0.data       906381                       # number of WriteReq MSHR misses (Count)
system.cpu0.dcache.WriteReq.mshrMisses::total       906381                       # number of WriteReq MSHR misses (Count)
system.cpu0.dcache.WriteReq.mshrMissLatency::cpu0.data  33791235270                       # number of WriteReq MSHR miss ticks (Tick)
system.cpu0.dcache.WriteReq.mshrMissLatency::total  33791235270                       # number of WriteReq MSHR miss ticks (Tick)
system.cpu0.dcache.WriteReq.mshrMissRate::cpu0.data     0.122765                       # mshr miss rate for WriteReq accesses (Ratio)
system.cpu0.dcache.WriteReq.mshrMissRate::total     0.122765                       # mshr miss rate for WriteReq accesses (Ratio)
system.cpu0.dcache.WriteReq.avgMshrMissLatency::cpu0.data 37281.491194                       # average WriteReq mshr miss latency ((Tick/Count))
system.cpu0.dcache.WriteReq.avgMshrMissLatency::total 37281.491194                       # average WriteReq mshr miss latency ((Tick/Count))
system.cpu0.dcache.power_state.pwrStateResidencyTicks::UNDEFINED  67321609002                       # Cumulative time (in ticks) in various power states (Tick)
system.cpu0.dcache.tags.tagsInUse          511.736927                       # Average ticks per tags in use ((Tick/Count))
system.cpu0.dcache.tags.totalRefs            21776890                       # Total number of references to valid blocks. (Count)
system.cpu0.dcache.tags.sampledRefs           1363938                       # Sample count of references to valid blocks. (Count)
system.cpu0.dcache.tags.avgRefs             15.966188                       # Average number of references to valid blocks. ((Count/Count))
system.cpu0.dcache.tags.warmupTick             189144                       # The tick when the warmup percentage was hit. (Tick)
system.cpu0.dcache.tags.occupancies::cpu0.data   511.736927                       # Average occupied blocks per tick, per requestor ((Count/Tick))
system.cpu0.dcache.tags.avgOccs::cpu0.data     0.999486                       # Average percentage of cache occupancy ((Ratio/Tick))
system.cpu0.dcache.tags.avgOccs::total       0.999486                       # Average percentage of cache occupancy ((Ratio/Tick))
system.cpu0.dcache.tags.occupanciesTaskId::1024          512                       # Occupied blocks per task id (Count)
system.cpu0.dcache.tags.ageTaskId_1024::0           74                       # Occupied blocks per task id, per block age (Count)
system.cpu0.dcache.tags.ageTaskId_1024::1          429                       # Occupied blocks per task id, per block age (Count)
system.cpu0.dcache.tags.ageTaskId_1024::2            2                       # Occupied blocks per task id, per block age (Count)
system.cpu0.dcache.tags.ageTaskId_1024::3            7                       # Occupied blocks per task id, per block age (Count)
system.cpu0.dcache.tags.ratioOccsTaskId::1024            1                       # Ratio of occupied blocks and all blocks, per task id (Ratio)
system.cpu0.dcache.tags.tagAccesses         193629298                       # Number of tag accesses (Count)
system.cpu0.dcache.tags.dataAccesses        193629298                       # Number of data accesses (Count)
system.cpu0.dcache.tags.power_state.pwrStateResidencyTicks::UNDEFINED  67321609002                       # Cumulative time (in ticks) in various power states (Tick)
system.cpu0.decode.idleCycles                 8365922                       # Number of cycles decode is idle (Cycle)
system.cpu0.decode.blockedCycles            165726757                       # Number of cycles decode is blocked (Cycle)
system.cpu0.decode.runCycles                  4663978                       # Number of cycles decode is running (Cycle)
system.cpu0.decode.unblockCycles             22922833                       # Number of cycles decode is unblocking (Cycle)
system.cpu0.decode.squashCycles                  9475                       # Number of cycles decode is squashing (Cycle)
system.cpu0.decode.branchResolved             5836027                       # Number of times decode resolved a branch (Count)
system.cpu0.decode.branchMispred                  907                       # Number of times decode detected a branch misprediction (Count)
system.cpu0.decode.decodedInsts             220011452                       # Number of instructions handled by decode (Count)
system.cpu0.decode.squashedInsts                 4346                       # Number of squashed instructions handled by decode (Count)
system.cpu0.dtb_walker_cache.blockedCycles::no_mshrs            0                       # number of cycles access was blocked (Cycle)
system.cpu0.dtb_walker_cache.blockedCycles::no_targets            0                       # number of cycles access was blocked (Cycle)
system.cpu0.dtb_walker_cache.blockedCauses::no_mshrs            0                       # number of times access was blocked (Count)
system.cpu0.dtb_walker_cache.blockedCauses::no_targets            0                       # number of times access was blocked (Count)
system.cpu0.dtb_walker_cache.avgBlocked::no_mshrs          nan                       # average number of cycles each access was blocked ((Cycle/Count))
system.cpu0.dtb_walker_cache.avgBlocked::no_targets          nan                       # average number of cycles each access was blocked ((Cycle/Count))
system.cpu0.dtb_walker_cache.replacements            0                       # number of replacements (Count)
system.cpu0.dtb_walker_cache.power_state.pwrStateResidencyTicks::UNDEFINED  67321609002                       # Cumulative time (in ticks) in various power states (Tick)
system.cpu0.dtb_walker_cache.tags.tagsInUse            0                       # Average ticks per tags in use ((Tick/Count))
system.cpu0.dtb_walker_cache.tags.totalRefs            0                       # Total number of references to valid blocks. (Count)
system.cpu0.dtb_walker_cache.tags.sampledRefs            0                       # Sample count of references to valid blocks. (Count)
system.cpu0.dtb_walker_cache.tags.avgRefs          nan                       # Average number of references to valid blocks. ((Count/Count))
system.cpu0.dtb_walker_cache.tags.warmupTick            0                       # The tick when the warmup percentage was hit. (Tick)
system.cpu0.dtb_walker_cache.tags.tagAccesses            0                       # Number of tag accesses (Count)
system.cpu0.dtb_walker_cache.tags.dataAccesses            0                       # Number of data accesses (Count)
system.cpu0.dtb_walker_cache.tags.power_state.pwrStateResidencyTicks::UNDEFINED  67321609002                       # Cumulative time (in ticks) in various power states (Tick)
system.cpu0.fetch.icacheStallCycles          16457916                       # Number of cycles fetch is stalled on an Icache miss (Cycle)
system.cpu0.fetch.insts                     127734323                       # Number of instructions fetch has processed (Count)
system.cpu0.fetch.branches                    8010964                       # Number of branches that fetch encountered (Count)
system.cpu0.fetch.predictedBranches           7944513                       # Number of branches that fetch has predicted taken (Count)
system.cpu0.fetch.cycles                    185214500                       # Number of cycles fetch has run and was not squashing or blocked (Cycle)
system.cpu0.fetch.squashCycles                  20728                       # Number of cycles fetch has spent squashing (Cycle)
system.cpu0.fetch.miscStallCycles                 802                       # Number of cycles fetch has spent waiting on interrupts, or bad addresses, or out of MSHRs (Cycle)
system.cpu0.fetch.pendingTrapStallCycles         5362                       # Number of stall cycles due to pending traps (Cycle)
system.cpu0.fetch.icacheWaitRetryStallCycles           21                       # Number of stall cycles due to full MSHR (Cycle)
system.cpu0.fetch.cacheLines                 16373299                       # Number of cache lines fetched (Count)
system.cpu0.fetch.icacheSquashes                 2617                       # Number of outstanding Icache misses that were squashed (Count)
system.cpu0.fetch.nisnDist::samples         201688965                       # Number of instructions fetched each cycle (Total) (Count)
system.cpu0.fetch.nisnDist::mean             1.091605                       # Number of instructions fetched each cycle (Total) (Count)
system.cpu0.fetch.nisnDist::stdev            2.482289                       # Number of instructions fetched each cycle (Total) (Count)
system.cpu0.fetch.nisnDist::underflows              0      0.00%      0.00% # Number of instructions fetched each cycle (Total) (Count)
system.cpu0.fetch.nisnDist::0               163061606     80.85%     80.85% # Number of instructions fetched each cycle (Total) (Count)
system.cpu0.fetch.nisnDist::1                 2698728      1.34%     82.19% # Number of instructions fetched each cycle (Total) (Count)
system.cpu0.fetch.nisnDist::2                 3035761      1.51%     83.69% # Number of instructions fetched each cycle (Total) (Count)
system.cpu0.fetch.nisnDist::3                 3821940      1.89%     85.59% # Number of instructions fetched each cycle (Total) (Count)
system.cpu0.fetch.nisnDist::4                 2435965      1.21%     86.79% # Number of instructions fetched each cycle (Total) (Count)
system.cpu0.fetch.nisnDist::5                 4264762      2.11%     88.91% # Number of instructions fetched each cycle (Total) (Count)
system.cpu0.fetch.nisnDist::6                 4036914      2.00%     90.91% # Number of instructions fetched each cycle (Total) (Count)
system.cpu0.fetch.nisnDist::7                 2026766      1.00%     91.92% # Number of instructions fetched each cycle (Total) (Count)
system.cpu0.fetch.nisnDist::8                16306523      8.08%    100.00% # Number of instructions fetched each cycle (Total) (Count)
system.cpu0.fetch.nisnDist::overflows               0      0.00%    100.00% # Number of instructions fetched each cycle (Total) (Count)
system.cpu0.fetch.nisnDist::min_value               0                       # Number of instructions fetched each cycle (Total) (Count)
system.cpu0.fetch.nisnDist::max_value               8                       # Number of instructions fetched each cycle (Total) (Count)
system.cpu0.fetch.nisnDist::total           201688965                       # Number of instructions fetched each cycle (Total) (Count)
system.cpu0.fetch.branchRate                 0.039672                       # Number of branch fetches per cycle (Ratio)
system.cpu0.fetch.rate                       0.632568                       # Number of inst fetches per cycle ((Count/Cycle))
system.cpu0.icache.demandHits::cpu0.inst     16370755                       # number of demand (read+write) hits (Count)
system.cpu0.icache.demandHits::total         16370755                       # number of demand (read+write) hits (Count)
system.cpu0.icache.overallHits::cpu0.inst     16370755                       # number of overall hits (Count)
system.cpu0.icache.overallHits::total        16370755                       # number of overall hits (Count)
system.cpu0.icache.demandMisses::cpu0.inst         2544                       # number of demand (read+write) misses (Count)
system.cpu0.icache.demandMisses::total           2544                       # number of demand (read+write) misses (Count)
system.cpu0.icache.overallMisses::cpu0.inst         2544                       # number of overall misses (Count)
system.cpu0.icache.overallMisses::total          2544                       # number of overall misses (Count)
system.cpu0.icache.demandMissLatency::cpu0.inst    204056405                       # number of demand (read+write) miss ticks (Tick)
system.cpu0.icache.demandMissLatency::total    204056405                       # number of demand (read+write) miss ticks (Tick)
system.cpu0.icache.overallMissLatency::cpu0.inst    204056405                       # number of overall miss ticks (Tick)
system.cpu0.icache.overallMissLatency::total    204056405                       # number of overall miss ticks (Tick)
system.cpu0.icache.demandAccesses::cpu0.inst     16373299                       # number of demand (read+write) accesses (Count)
system.cpu0.icache.demandAccesses::total     16373299                       # number of demand (read+write) accesses (Count)
system.cpu0.icache.overallAccesses::cpu0.inst     16373299                       # number of overall (read+write) accesses (Count)
system.cpu0.icache.overallAccesses::total     16373299                       # number of overall (read+write) accesses (Count)
system.cpu0.icache.demandMissRate::cpu0.inst     0.000155                       # miss rate for demand accesses (Ratio)
system.cpu0.icache.demandMissRate::total     0.000155                       # miss rate for demand accesses (Ratio)
system.cpu0.icache.overallMissRate::cpu0.inst     0.000155                       # miss rate for overall accesses (Ratio)
system.cpu0.icache.overallMissRate::total     0.000155                       # miss rate for overall accesses (Ratio)
system.cpu0.icache.demandAvgMissLatency::cpu0.inst 80210.851022                       # average overall miss latency in ticks ((Tick/Count))
system.cpu0.icache.demandAvgMissLatency::total 80210.851022                       # average overall miss latency in ticks ((Tick/Count))
system.cpu0.icache.overallAvgMissLatency::cpu0.inst 80210.851022                       # average overall miss latency ((Tick/Count))
system.cpu0.icache.overallAvgMissLatency::total 80210.851022                       # average overall miss latency ((Tick/Count))
system.cpu0.icache.blockedCycles::no_mshrs         1422                       # number of cycles access was blocked (Cycle)
system.cpu0.icache.blockedCycles::no_targets            0                       # number of cycles access was blocked (Cycle)
system.cpu0.icache.blockedCauses::no_mshrs           11                       # number of times access was blocked (Count)
system.cpu0.icache.blockedCauses::no_targets            0                       # number of times access was blocked (Count)
system.cpu0.icache.avgBlocked::no_mshrs    129.272727                       # average number of cycles each access was blocked ((Cycle/Count))
system.cpu0.icache.avgBlocked::no_targets          nan                       # average number of cycles each access was blocked ((Cycle/Count))
system.cpu0.icache.writebacks::writebacks         1390                       # number of writebacks (Count)
system.cpu0.icache.writebacks::total             1390                       # number of writebacks (Count)
system.cpu0.icache.demandMshrHits::cpu0.inst          641                       # number of demand (read+write) MSHR hits (Count)
system.cpu0.icache.demandMshrHits::total          641                       # number of demand (read+write) MSHR hits (Count)
system.cpu0.icache.overallMshrHits::cpu0.inst          641                       # number of overall MSHR hits (Count)
system.cpu0.icache.overallMshrHits::total          641                       # number of overall MSHR hits (Count)
system.cpu0.icache.demandMshrMisses::cpu0.inst         1903                       # number of demand (read+write) MSHR misses (Count)
system.cpu0.icache.demandMshrMisses::total         1903                       # number of demand (read+write) MSHR misses (Count)
system.cpu0.icache.overallMshrMisses::cpu0.inst         1903                       # number of overall MSHR misses (Count)
system.cpu0.icache.overallMshrMisses::total         1903                       # number of overall MSHR misses (Count)
system.cpu0.icache.demandMshrMissLatency::cpu0.inst    157296878                       # number of demand (read+write) MSHR miss ticks (Tick)
system.cpu0.icache.demandMshrMissLatency::total    157296878                       # number of demand (read+write) MSHR miss ticks (Tick)
system.cpu0.icache.overallMshrMissLatency::cpu0.inst    157296878                       # number of overall MSHR miss ticks (Tick)
system.cpu0.icache.overallMshrMissLatency::total    157296878                       # number of overall MSHR miss ticks (Tick)
system.cpu0.icache.demandMshrMissRate::cpu0.inst     0.000116                       # mshr miss ratio for demand accesses (Ratio)
system.cpu0.icache.demandMshrMissRate::total     0.000116                       # mshr miss ratio for demand accesses (Ratio)
system.cpu0.icache.overallMshrMissRate::cpu0.inst     0.000116                       # mshr miss ratio for overall accesses (Ratio)
system.cpu0.icache.overallMshrMissRate::total     0.000116                       # mshr miss ratio for overall accesses (Ratio)
system.cpu0.icache.demandAvgMshrMissLatency::cpu0.inst 82657.318970                       # average overall mshr miss latency ((Tick/Count))
system.cpu0.icache.demandAvgMshrMissLatency::total 82657.318970                       # average overall mshr miss latency ((Tick/Count))
system.cpu0.icache.overallAvgMshrMissLatency::cpu0.inst 82657.318970                       # average overall mshr miss latency ((Tick/Count))
system.cpu0.icache.overallAvgMshrMissLatency::total 82657.318970                       # average overall mshr miss latency ((Tick/Count))
system.cpu0.icache.replacements                  1390                       # number of replacements (Count)
system.cpu0.icache.ReadReq.hits::cpu0.inst     16370755                       # number of ReadReq hits (Count)
system.cpu0.icache.ReadReq.hits::total       16370755                       # number of ReadReq hits (Count)
system.cpu0.icache.ReadReq.misses::cpu0.inst         2544                       # number of ReadReq misses (Count)
system.cpu0.icache.ReadReq.misses::total         2544                       # number of ReadReq misses (Count)
system.cpu0.icache.ReadReq.missLatency::cpu0.inst    204056405                       # number of ReadReq miss ticks (Tick)
system.cpu0.icache.ReadReq.missLatency::total    204056405                       # number of ReadReq miss ticks (Tick)
system.cpu0.icache.ReadReq.accesses::cpu0.inst     16373299                       # number of ReadReq accesses(hits+misses) (Count)
system.cpu0.icache.ReadReq.accesses::total     16373299                       # number of ReadReq accesses(hits+misses) (Count)
system.cpu0.icache.ReadReq.missRate::cpu0.inst     0.000155                       # miss rate for ReadReq accesses (Ratio)
system.cpu0.icache.ReadReq.missRate::total     0.000155                       # miss rate for ReadReq accesses (Ratio)
system.cpu0.icache.ReadReq.avgMissLatency::cpu0.inst 80210.851022                       # average ReadReq miss latency ((Tick/Count))
system.cpu0.icache.ReadReq.avgMissLatency::total 80210.851022                       # average ReadReq miss latency ((Tick/Count))
system.cpu0.icache.ReadReq.mshrHits::cpu0.inst          641                       # number of ReadReq MSHR hits (Count)
system.cpu0.icache.ReadReq.mshrHits::total          641                       # number of ReadReq MSHR hits (Count)
system.cpu0.icache.ReadReq.mshrMisses::cpu0.inst         1903                       # number of ReadReq MSHR misses (Count)
system.cpu0.icache.ReadReq.mshrMisses::total         1903                       # number of ReadReq MSHR misses (Count)
system.cpu0.icache.ReadReq.mshrMissLatency::cpu0.inst    157296878                       # number of ReadReq MSHR miss ticks (Tick)
system.cpu0.icache.ReadReq.mshrMissLatency::total    157296878                       # number of ReadReq MSHR miss ticks (Tick)
system.cpu0.icache.ReadReq.mshrMissRate::cpu0.inst     0.000116                       # mshr miss rate for ReadReq accesses (Ratio)
system.cpu0.icache.ReadReq.mshrMissRate::total     0.000116                       # mshr miss rate for ReadReq accesses (Ratio)
system.cpu0.icache.ReadReq.avgMshrMissLatency::cpu0.inst 82657.318970                       # average ReadReq mshr miss latency ((Tick/Count))
system.cpu0.icache.ReadReq.avgMshrMissLatency::total 82657.318970                       # average ReadReq mshr miss latency ((Tick/Count))
system.cpu0.icache.power_state.pwrStateResidencyTicks::UNDEFINED  67321609002                       # Cumulative time (in ticks) in various power states (Tick)
system.cpu0.icache.tags.tagsInUse          511.824828                       # Average ticks per tags in use ((Tick/Count))
system.cpu0.icache.tags.totalRefs            16372657                       # Total number of references to valid blocks. (Count)
system.cpu0.icache.tags.sampledRefs              1902                       # Sample count of references to valid blocks. (Count)
system.cpu0.icache.tags.avgRefs           8608.126709                       # Average number of references to valid blocks. ((Count/Count))
system.cpu0.icache.tags.warmupTick              92241                       # The tick when the warmup percentage was hit. (Tick)
system.cpu0.icache.tags.occupancies::cpu0.inst   511.824828                       # Average occupied blocks per tick, per requestor ((Count/Tick))
system.cpu0.icache.tags.avgOccs::cpu0.inst     0.999658                       # Average percentage of cache occupancy ((Ratio/Tick))
system.cpu0.icache.tags.avgOccs::total       0.999658                       # Average percentage of cache occupancy ((Ratio/Tick))
system.cpu0.icache.tags.occupanciesTaskId::1024          512                       # Occupied blocks per task id (Count)
system.cpu0.icache.tags.ageTaskId_1024::0          124                       # Occupied blocks per task id, per block age (Count)
system.cpu0.icache.tags.ageTaskId_1024::1          199                       # Occupied blocks per task id, per block age (Count)
system.cpu0.icache.tags.ageTaskId_1024::3            1                       # Occupied blocks per task id, per block age (Count)
system.cpu0.icache.tags.ageTaskId_1024::4          188                       # Occupied blocks per task id, per block age (Count)
system.cpu0.icache.tags.ratioOccsTaskId::1024            1                       # Ratio of occupied blocks and all blocks, per task id (Ratio)
system.cpu0.icache.tags.tagAccesses         130988294                       # Number of tag accesses (Count)
system.cpu0.icache.tags.dataAccesses        130988294                       # Number of data accesses (Count)
system.cpu0.icache.tags.power_state.pwrStateResidencyTicks::UNDEFINED  67321609002                       # Cumulative time (in ticks) in various power states (Tick)
system.cpu0.iew.idleCycles                          0                       # Number of cycles IEW is idle (Cycle)
system.cpu0.iew.squashCycles                     9475                       # Number of cycles IEW is squashing (Cycle)
system.cpu0.iew.blockCycles                  40948090                       # Number of cycles IEW is blocking (Cycle)
system.cpu0.iew.unblockCycles                20426833                       # Number of cycles IEW is unblocking (Cycle)
system.cpu0.iew.dispatchedInsts             219917619                       # Number of instructions dispatched to IQ (Count)
system.cpu0.iew.dispSquashedInsts                 623                       # Number of squashed instructions skipped by dispatch (Count)
system.cpu0.iew.dispLoadInsts                19043213                       # Number of dispatched load instructions (Count)
system.cpu0.iew.dispStoreInsts                7419856                       # Number of dispatched store instructions (Count)
system.cpu0.iew.dispNonSpecInsts                  629                       # Number of dispatched non-speculative instructions (Count)
system.cpu0.iew.iqFullEvents                   100686                       # Number of times the IQ has become full, causing a stall (Count)
system.cpu0.iew.lsqFullEvents                20152234                       # Number of times the LSQ has become full, causing a stall (Count)
system.cpu0.iew.memOrderViolationEvents           198                       # Number of memory order violations (Count)
system.cpu0.iew.predictedTakenIncorrect          2362                       # Number of branches that were predicted taken incorrectly (Count)
system.cpu0.iew.predictedNotTakenIncorrect         6010                       # Number of branches that were predicted not taken incorrectly (Count)
system.cpu0.iew.branchMispredicts                8372                       # Number of branch mispredicts detected at execute (Count)
system.cpu0.iew.instsToCommit               219722304                       # Cumulative count of insts sent to commit (Count)
system.cpu0.iew.writebackCount              219710808                       # Cumulative count of insts written-back (Count)
system.cpu0.iew.producerInst                165284309                       # Number of instructions producing a value (Count)
system.cpu0.iew.consumerInst                307020820                       # Number of instructions consuming a value (Count)
system.cpu0.iew.wbRate                       1.088055                       # Insts written-back per cycle ((Count/Cycle))
system.cpu0.iew.wbFanout                     0.538349                       # Average fanout of values written-back ((Count/Count))
system.cpu0.interrupts.clk_domain.clock          5328                       # Clock period in ticks (Tick)
system.cpu0.itb_walker_cache.blockedCycles::no_mshrs            0                       # number of cycles access was blocked (Cycle)
system.cpu0.itb_walker_cache.blockedCycles::no_targets            0                       # number of cycles access was blocked (Cycle)
system.cpu0.itb_walker_cache.blockedCauses::no_mshrs            0                       # number of times access was blocked (Count)
system.cpu0.itb_walker_cache.blockedCauses::no_targets            0                       # number of times access was blocked (Count)
system.cpu0.itb_walker_cache.avgBlocked::no_mshrs          nan                       # average number of cycles each access was blocked ((Cycle/Count))
[...]
system.mem_ctrls.dram.perBankWrBursts::11        28875                       # Per bank write bursts (Count)
system.mem_ctrls.dram.perBankWrBursts::12        28772                       # Per bank write bursts (Count)
system.mem_ctrls.dram.perBankWrBursts::13        28745                       # Per bank write bursts (Count)
system.mem_ctrls.dram.perBankWrBursts::14        28673                       # Per bank write bursts (Count)
system.mem_ctrls.dram.perBankWrBursts::15        28943                       # Per bank write bursts (Count)
system.mem_ctrls.dram.totQLat             31067838760                       # Total ticks spent queuing (Tick)
system.mem_ctrls.dram.totBusLat            6163915000                       # Total ticks spent in databus transfers (Tick)
system.mem_ctrls.dram.totMemAccLat        54182520010                       # Total ticks spent from burst creation until serviced by the DRAM (Tick)
system.mem_ctrls.dram.avgQLat                25201.38                       # Average queueing delay per DRAM burst ((Tick/Count))
system.mem_ctrls.dram.avgBusLat               5000.00                       # Average bus latency per DRAM burst ((Tick/Count))
system.mem_ctrls.dram.avgMemAccLat           43951.38                       # Average memory access latency per DRAM burst ((Tick/Count))
system.mem_ctrls.dram.readRowHits              704763                       # Number of row buffer hits during reads (Count)
system.mem_ctrls.dram.writeRowHits             220758                       # Number of row buffer hits during writes (Count)
system.mem_ctrls.dram.readRowHitRate            57.17                       # Row buffer hit rate for reads (Ratio)
system.mem_ctrls.dram.writeRowHitRate           47.75                       # Row buffer hit rate for writes (Ratio)
system.mem_ctrls.dram.bytesPerActivate::samples       769551                       # Bytes accessed per row activation (Byte)
system.mem_ctrls.dram.bytesPerActivate::mean   140.971138                       # Bytes accessed per row activation (Byte)
system.mem_ctrls.dram.bytesPerActivate::gmean    91.182528                       # Bytes accessed per row activation (Byte)
system.mem_ctrls.dram.bytesPerActivate::stdev   206.195716                       # Bytes accessed per row activation (Byte)
system.mem_ctrls.dram.bytesPerActivate::0-127       590301     76.71%     76.71% # Bytes accessed per row activation (Byte)
system.mem_ctrls.dram.bytesPerActivate::128-255        81264     10.56%     87.27% # Bytes accessed per row activation (Byte)
system.mem_ctrls.dram.bytesPerActivate::256-383        27228      3.54%     90.81% # Bytes accessed per row activation (Byte)
system.mem_ctrls.dram.bytesPerActivate::384-511        17203      2.24%     93.04% # Bytes accessed per row activation (Byte)
system.mem_ctrls.dram.bytesPerActivate::512-639        13462      1.75%     94.79% # Bytes accessed per row activation (Byte)
system.mem_ctrls.dram.bytesPerActivate::640-767         7234      0.94%     95.73% # Bytes accessed per row activation (Byte)
system.mem_ctrls.dram.bytesPerActivate::768-895         5045      0.66%     96.39% # Bytes accessed per row activation (Byte)
system.mem_ctrls.dram.bytesPerActivate::896-1023         3926      0.51%     96.90% # Bytes accessed per row activation (Byte)
system.mem_ctrls.dram.bytesPerActivate::1024-1151        23888      3.10%    100.00% # Bytes accessed per row activation (Byte)
system.mem_ctrls.dram.bytesPerActivate::total       769551                       # Bytes accessed per row activation (Byte)
system.mem_ctrls.dram.bytesRead              78898112                       # Total bytes read (Byte)
system.mem_ctrls.dram.bytesWritten           29587008                       # Total bytes written (Byte)
system.mem_ctrls.dram.avgRdBW             1171.958204                       # Average DRAM read bandwidth in MiBytes/s ((Byte/Second))
system.mem_ctrls.dram.avgWrBW              439.487535                       # Average DRAM write bandwidth in MiBytes/s ((Byte/Second))
system.mem_ctrls.dram.peakBW                 12800.00                       # Theoretical peak bandwidth in MiByte/s ((Byte/Second))
system.mem_ctrls.dram.busUtil                   12.59                       # Data bus utilization in percentage (Ratio)
system.mem_ctrls.dram.busUtilRead                9.16                       # Data bus utilization in percentage for reads (Ratio)
system.mem_ctrls.dram.busUtilWrite               3.43                       # Data bus utilization in percentage for writes (Ratio)
system.mem_ctrls.dram.pageHitRate               54.60                       # Row buffer hit rate, read and write combined (Ratio)
system.mem_ctrls.dram.power_state.pwrStateResidencyTicks::UNDEFINED  67321609002                       # Cumulative time (in ticks) in various power states (Tick)
system.mem_ctrls.dram.rank0.actEnergy      2756882520                       # Energy for activate commands per rank (pJ) (Joule)
system.mem_ctrls.dram.rank0.preEnergy      1465310220                       # Energy for precharge commands per rank (pJ) (Joule)
system.mem_ctrls.dram.rank0.readEnergy     4410278040                       # Energy for read commands per rank (pJ) (Joule)
system.mem_ctrls.dram.rank0.writeEnergy    1213201080                       # Energy for write commands per rank (pJ) (Joule)
system.mem_ctrls.dram.rank0.refreshEnergy 5314177440.000001                       # Energy for refresh commands per rank (pJ) (Joule)
system.mem_ctrls.dram.rank0.actBackEnergy  24389335560                       # Energy for active background per rank (pJ) (Joule)
system.mem_ctrls.dram.rank0.preBackEnergy   5313110400                       # Energy for precharge background per rank (pJ) (Joule)
system.mem_ctrls.dram.rank0.actPowerDownEnergy            0                       # Energy for active power-down per rank (pJ) (Joule)
system.mem_ctrls.dram.rank0.prePowerDownEnergy            0                       # Energy for precharge power-down per rank (pJ) (Joule)
system.mem_ctrls.dram.rank0.selfRefreshEnergy            0                       # Energy for self refresh per rank (pJ) (Joule)
system.mem_ctrls.dram.rank0.totalEnergy   44862295260                       # Total energy per rank (pJ) (Joule)
system.mem_ctrls.dram.rank0.averagePower   666.387746                       # Core power per rank (mW) (Watt)
system.mem_ctrls.dram.rank0.totalIdleTime            0                       # Total Idle time Per DRAM Rank (Tick)
system.mem_ctrls.dram.rank0.pwrStateTime::IDLE  13536266789                       # Time in different power states (Tick)
system.mem_ctrls.dram.rank0.pwrStateTime::REF   2247960000                       # Time in different power states (Tick)
system.mem_ctrls.dram.rank0.pwrStateTime::SREF            0                       # Time in different power states (Tick)
system.mem_ctrls.dram.rank0.pwrStateTime::PRE_PDN            0                       # Time in different power states (Tick)
system.mem_ctrls.dram.rank0.pwrStateTime::ACT  51537382213                       # Time in different power states (Tick)
system.mem_ctrls.dram.rank0.pwrStateTime::ACT_PDN            0                       # Time in different power states (Tick)
system.mem_ctrls.dram.rank1.actEnergy      2737768740                       # Energy for activate commands per rank (pJ) (Joule)
system.mem_ctrls.dram.rank1.preEnergy      1455135825                       # Energy for precharge commands per rank (pJ) (Joule)
system.mem_ctrls.dram.rank1.readEnergy     4391792580                       # Energy for read commands per rank (pJ) (Joule)
system.mem_ctrls.dram.rank1.writeEnergy    1199989260                       # Energy for write commands per rank (pJ) (Joule)
system.mem_ctrls.dram.rank1.refreshEnergy 5314177440.000001                       # Energy for refresh commands per rank (pJ) (Joule)
system.mem_ctrls.dram.rank1.actBackEnergy  24326137380                       # Energy for active background per rank (pJ) (Joule)
system.mem_ctrls.dram.rank1.preBackEnergy   5366329920                       # Energy for precharge background per rank (pJ) (Joule)
system.mem_ctrls.dram.rank1.actPowerDownEnergy            0                       # Energy for active power-down per rank (pJ) (Joule)
system.mem_ctrls.dram.rank1.prePowerDownEnergy            0                       # Energy for precharge power-down per rank (pJ) (Joule)
system.mem_ctrls.dram.rank1.selfRefreshEnergy            0                       # Energy for self refresh per rank (pJ) (Joule)
system.mem_ctrls.dram.rank1.totalEnergy   44791331145                       # Total energy per rank (pJ) (Joule)
system.mem_ctrls.dram.rank1.averagePower   665.333640                       # Core power per rank (mW) (Watt)
system.mem_ctrls.dram.rank1.totalIdleTime            0                       # Total Idle time Per DRAM Rank (Tick)
system.mem_ctrls.dram.rank1.pwrStateTime::IDLE  13669533149                       # Time in different power states (Tick)
system.mem_ctrls.dram.rank1.pwrStateTime::REF   2247960000                       # Time in different power states (Tick)
system.mem_ctrls.dram.rank1.pwrStateTime::SREF            0                       # Time in different power states (Tick)
system.mem_ctrls.dram.rank1.pwrStateTime::PRE_PDN            0                       # Time in different power states (Tick)
system.mem_ctrls.dram.rank1.pwrStateTime::ACT  51404115853                       # Time in different power states (Tick)
system.mem_ctrls.dram.rank1.pwrStateTime::ACT_PDN            0                       # Time in different power states (Tick)
system.mem_ctrls.power_state.pwrStateResidencyTicks::UNDEFINED  67321609002                       # Cumulative time (in ticks) in various power states (Tick)
system.membus.transDist::ReadResp              702440                       # Transaction distribution (Count)
system.membus.transDist::WritebackDirty        462325                       # Transaction distribution (Count)
system.membus.transDist::CleanEvict            652639                       # Transaction distribution (Count)
system.membus.transDist::UpgradeReq              2975                       # Transaction distribution (Count)
system.membus.transDist::ReadExReq             530442                       # Transaction distribution (Count)
system.membus.transDist::ReadExResp            530389                       # Transaction distribution (Count)
system.membus.transDist::ReadSharedReq         702440                       # Transaction distribution (Count)
system.membus.pktCount_system.l3.mem_side_port::system.mem_ctrls.port      3583650                       # Packet count per connected requestor and responder (Count)
system.membus.pktCount_system.l3.mem_side_port::total      3583650                       # Packet count per connected requestor and responder (Count)
system.membus.pktCount::total                 3583650                       # Packet count per connected requestor and responder (Count)
system.membus.pktSize_system.l3.mem_side_port::system.mem_ctrls.port    108489856                       # Cumulative packet size per connected requestor and responder (Byte)
system.membus.pktSize_system.l3.mem_side_port::total    108489856                       # Cumulative packet size per connected requestor and responder (Byte)
system.membus.pktSize::total                108489856                       # Cumulative packet size per connected requestor and responder (Byte)
system.membus.snoops                             3028                       # Total snoops (Count)
system.membus.snoopTraffic                          0                       # Total snoop traffic (Byte)
system.membus.snoopFanout::samples            1235857                       # Request fanout histogram (Count)
system.membus.snoopFanout::mean                     0                       # Request fanout histogram (Count)
system.membus.snoopFanout::stdev                    0                       # Request fanout histogram (Count)
system.membus.snoopFanout::underflows               0      0.00%      0.00% # Request fanout histogram (Count)
system.membus.snoopFanout::0                  1235857    100.00%    100.00% # Request fanout histogram (Count)
system.membus.snoopFanout::1                        0      0.00%    100.00% # Request fanout histogram (Count)
system.membus.snoopFanout::overflows                0      0.00%    100.00% # Request fanout histogram (Count)
system.membus.snoopFanout::min_value                0                       # Request fanout histogram (Count)
system.membus.snoopFanout::max_value                0                       # Request fanout histogram (Count)
system.membus.snoopFanout::total              1235857                       # Request fanout histogram (Count)
system.membus.power_state.pwrStateResidencyTicks::UNDEFINED  67321609002                       # Cumulative time (in ticks) in various power states (Tick)
system.membus.reqLayer4.occupancy          5002721763                       # Layer occupancy (ticks) (Tick)
system.membus.reqLayer4.utilization               0.1                       # Layer utilization (Ratio)
system.membus.respLayer1.occupancy         6677678811                       # Layer occupancy (ticks) (Tick)
system.membus.respLayer1.utilization              0.1                       # Layer utilization (Ratio)
system.membus.snoop_filter.totRequests        2350821                       # Total number of requests made to the snoop filter. (Count)
system.membus.snoop_filter.hitSingleRequests      1119831                       # Number of requests hitting in the snoop filter with a single holder of the requested data. (Count)
system.membus.snoop_filter.hitMultiRequests            0                       # Number of requests hitting in the snoop filter with multiple (>1) holders of the requested data. (Count)
system.membus.snoop_filter.totSnoops                0                       # Total number of snoops made to the snoop filter. (Count)
system.membus.snoop_filter.hitSingleSnoops            0                       # Number of snoops hitting in the snoop filter with a single holder of the requested data. (Count)
system.membus.snoop_filter.hitMultiSnoops            0                       # Number of snoops hitting in the snoop filter with multiple (>1) holders of the requested data. (Count)
system.tol3bus.transDist::ReadResp             788279                       # Transaction distribution (Count)
system.tol3bus.transDist::WritebackDirty      1006445                       # Transaction distribution (Count)
system.tol3bus.transDist::CleanEvict          1572984                       # Transaction distribution (Count)
system.tol3bus.transDist::UpgradeReq             3414                       # Transaction distribution (Count)
system.tol3bus.transDist::UpgradeResp            3414                       # Transaction distribution (Count)
system.tol3bus.transDist::ReadExReq            530563                       # Transaction distribution (Count)
system.tol3bus.transDist::ReadExResp           530563                       # Transaction distribution (Count)
system.tol3bus.transDist::ReadSharedReq        788279                       # Transaction distribution (Count)
system.tol3bus.pktCount_system.cpu0.l2cache.mem_side_port::system.l3.cpu_side_port      1939659                       # Packet count per connected requestor and responder (Count)
system.tol3bus.pktCount_system.cpu1.l2cache.mem_side_port::system.l3.cpu_side_port      1921580                       # Packet count per connected requestor and responder (Count)
system.tol3bus.pktCount::total                3861239                       # Packet count per connected requestor and responder (Count)
system.tol3bus.pktSize_system.cpu0.l2cache.mem_side_port::system.l3.cpu_side_port     58949312                       # Cumulative packet size per connected requestor and responder (Byte)
system.tol3bus.pktSize_system.cpu1.l2cache.mem_side_port::system.l3.cpu_side_port     58499456                       # Cumulative packet size per connected requestor and responder (Byte)
system.tol3bus.pktSize::total               117448768                       # Cumulative packet size per connected requestor and responder (Byte)
system.tol3bus.snoops                         1362702                       # Total snoops (Count)
system.tol3bus.snoopTraffic                  31369600                       # Total snoop traffic (Byte)
system.tol3bus.snoopFanout::samples           2654159                       # Request fanout histogram (Count)
system.tol3bus.snoopFanout::mean             0.150410                       # Request fanout histogram (Count)
system.tol3bus.snoopFanout::stdev            0.363231                       # Request fanout histogram (Count)
system.tol3bus.snoopFanout::underflows              0      0.00%      0.00% # Request fanout histogram (Count)
system.tol3bus.snoopFanout::0                 2260456     85.17%     85.17% # Request fanout histogram (Count)
system.tol3bus.snoopFanout::1                  388195     14.63%     99.79% # Request fanout histogram (Count)
system.tol3bus.snoopFanout::2                    5508      0.21%    100.00% # Request fanout histogram (Count)
system.tol3bus.snoopFanout::overflows               0      0.00%    100.00% # Request fanout histogram (Count)
system.tol3bus.snoopFanout::min_value               0                       # Request fanout histogram (Count)
system.tol3bus.snoopFanout::max_value               2                       # Request fanout histogram (Count)
system.tol3bus.snoopFanout::total             2654159                       # Request fanout histogram (Count)
system.tol3bus.power_state.pwrStateResidencyTicks::UNDEFINED  67321609002                       # Cumulative time (in ticks) in various power states (Tick)
system.tol3bus.reqLayer0.occupancy         1218125977                       # Layer occupancy (ticks) (Tick)
system.tol3bus.reqLayer0.utilization              0.0                       # Layer utilization (Ratio)
system.tol3bus.respLayer0.occupancy         661647515                       # Layer occupancy (ticks) (Tick)
system.tol3bus.respLayer0.utilization             0.0                       # Layer utilization (Ratio)
system.tol3bus.respLayer1.occupancy         657121735                       # Layer occupancy (ticks) (Tick)
system.tol3bus.respLayer1.utilization             0.0                       # Layer utilization (Ratio)
system.tol3bus.snoop_filter.totRequests       2569782                       # Total number of requests made to the snoop filter. (Count)
system.tol3bus.snoop_filter.hitSingleRequests      1250863                       # Number of requests hitting in the snoop filter with a single holder of the requested data. (Count)
system.tol3bus.snoop_filter.hitMultiRequests        30294                       # Number of requests hitting in the snoop filter with multiple (>1) holders of the requested data. (Count)
system.tol3bus.snoop_filter.totSnoops          360078                       # Total number of snoops made to the snoop filter. (Count)
system.tol3bus.snoop_filter.hitSingleSnoops       354570                       # Number of snoops hitting in the snoop filter with a single holder of the requested data. (Count)
system.tol3bus.snoop_filter.hitMultiSnoops         5508                       # Number of snoops hitting in the snoop filter with multiple (>1) holders of the requested data. (Count)
system.voltage_domain.voltage                       1                       # Voltage in Volts (Volt)
system.workload.inst.arm                            0                       # number of arm instructions executed (Count)
system.workload.inst.quiesce                        0                       # number of quiesce instructions executed (Count)

---------- End Simulation Statistics   ----------
