
---------- Begin Simulation Statistics ----------
simSeconds                                   0.008037                       # Number of seconds simulated (Second)
simTicks                                   8037294327                       # Number of ticks simulated (Tick)
finalTick                                  8037294327                       # Number of ticks from beginning of simulation (restored from checkpoints and never reset) (Tick)
simFreq                                  1000000000000                       # The number of ticks per simulated second ((Tick/Second))
hostSeconds                                     63.01                       # Real time elapsed on the host (Second)
hostTickRate                                127562039                       # The number of ticks simulated per host second (ticks/s) ((Tick/Second))
hostMemory                                     703712                       # Number of bytes of host memory used (Byte)
simInsts                                     43936847                       # Number of instructions simulated (Count)
simOps                                       43936996                       # Number of ops (including micro ops) simulated (Count)
hostInstRate                                   697328                       # Simulator instruction rate (inst/s) ((Count/Second))
hostOpRate                                     697330                       # Simulator op (including micro ops) rate (op/s) ((Count/Second))
system.clk_domain.clock                          1000                       # Clock period in ticks (Tick)
system.cpu0.numCycles                        24026421                       # Number of cpu cycles simulated (Cycle)
system.cpu0.numWorkItemsStarted                     0                       # Number of work items this cpu started (Count)
system.cpu0.numWorkItemsCompleted                   0                       # Number of work items this cpu completed (Count)
system.cpu0.instsAdded                       31024239                       # Number of instructions added to the IQ (excludes non-spec) (Count)
system.cpu0.nonSpecInstsAdded                   66762                       # Number of non-speculative instructions added to the IQ (Count)
system.cpu0.instsIssued                      31384628                       # Number of instructions issued (Count)
system.cpu0.squashedInstsIssued                  1459                       # Number of squashed instructions issued (Count)
system.cpu0.squashedInstsExamined              262057                       # Number of squashed instructions iterated over during squash; mainly for profiling (Count)
system.cpu0.squashedOperandsExamined           208929                       # Number of squashed operands that are examined and possibly removed from graph (Count)
system.cpu0.squashedNonSpecRemoved                486                       # Number of squashed non-spec instructions that were removed (Count)
system.cpu0.numIssuedDist::samples           23909588                       # Number of insts issued each cycle (Count)
system.cpu0.numIssuedDist::mean              1.312638                       # Number of insts issued each cycle (Count)
system.cpu0.numIssuedDist::stdev             1.914026                       # Number of insts issued each cycle (Count)
system.cpu0.numIssuedDist::underflows               0      0.00%      0.00% # Number of insts issued each cycle (Count)
system.cpu0.numIssuedDist::0                 13081543     54.71%     54.71% # Number of insts issued each cycle (Count)
system.cpu0.numIssuedDist::1                  3082393     12.89%     67.60% # Number of insts issued each cycle (Count)
system.cpu0.numIssuedDist::2                  2701052     11.30%     78.90% # Number of insts issued each cycle (Count)
system.cpu0.numIssuedDist::3                  1451171      6.07%     84.97% # Number of insts issued each cycle (Count)
system.cpu0.numIssuedDist::4                  1488503      6.23%     91.20% # Number of insts issued each cycle (Count)
system.cpu0.numIssuedDist::5                   948663      3.97%     95.16% # Number of insts issued each cycle (Count)
system.cpu0.numIssuedDist::6                   660454      2.76%     97.93% # Number of insts issued each cycle (Count)
system.cpu0.numIssuedDist::7                    79905      0.33%     98.26% # Number of insts issued each cycle (Count)
system.cpu0.numIssuedDist::8                   415904      1.74%    100.00% # Number of insts issued each cycle (Count)
system.cpu0.numIssuedDist::overflows                0      0.00%    100.00% # Number of insts issued each cycle (Count)
system.cpu0.numIssuedDist::min_value                0                       # Number of insts issued each cycle (Count)
system.cpu0.numIssuedDist::max_value                8                       # Number of insts issued each cycle (Count)
system.cpu0.numIssuedDist::total             23909588                       # Number of insts issued each cycle (Count)
system.cpu0.statFuBusy::No_OpClass                  0      0.00%      0.00% # attempts to use FU when none available (Count)
system.cpu0.statFuBusy::IntAlu                   2713      0.33%      0.33% # attempts to use FU when none available (Count)
system.cpu0.statFuBusy::IntMult                    32      0.00%      0.34% # attempts to use FU when none available (Count)
system.cpu0.statFuBusy::IntDiv                      1      0.00%      0.34% # attempts to use FU when none available (Count)
system.cpu0.statFuBusy::FloatAdd                  214      0.03%      0.36% # attempts to use FU when none available (Count)
system.cpu0.statFuBusy::FloatCmp                    0      0.00%      0.36% # attempts to use FU when none available (Count)
system.cpu0.statFuBusy::FloatCvt                    0      0.00%      0.36% # attempts to use FU when none available (Count)
system.cpu0.statFuBusy::FloatMult               97229     11.97%     12.34% # attempts to use FU when none available (Count)
system.cpu0.statFuBusy::FloatMultAcc           135190     16.64%     28.98% # attempts to use FU when none available (Count)
system.cpu0.statFuBusy::FloatDiv                  280      0.03%     29.01% # attempts to use FU when none available (Count)
system.cpu0.statFuBusy::FloatMisc               12992      1.60%     30.61% # attempts to use FU when none available (Count)
system.cpu0.statFuBusy::FloatSqrt                   0      0.00%     30.61% # attempts to use FU when none available (Count)
system.cpu0.statFuBusy::SimdAdd                     0      0.00%     30.61% # attempts to use FU when none available (Count)
system.cpu0.statFuBusy::SimdAddAcc                  0      0.00%     30.61% # attempts to use FU when none available (Count)
system.cpu0.statFuBusy::SimdAlu                     0      0.00%     30.61% # attempts to use FU when none available (Count)
system.cpu0.statFuBusy::SimdCmp                     0      0.00%     30.61% # attempts to use FU when none available (Count)
system.cpu0.statFuBusy::SimdCvt                     0      0.00%     30.61% # attempts to use FU when none available (Count)
system.cpu0.statFuBusy::SimdMisc                    0      0.00%     30.61% # attempts to use FU when none available (Count)
system.cpu0.statFuBusy::SimdMult                    0      0.00%     30.61% # attempts to use FU when none available (Count)
system.cpu0.statFuBusy::SimdMultAcc                 0      0.00%     30.61% # attempts to use FU when none available (Count)
system.cpu0.statFuBusy::SimdShift                   0      0.00%     30.61% # attempts to use FU when none available (Count)
system.cpu0.statFuBusy::SimdShiftAcc                0      0.00%     30.61% # attempts to use FU when none available (Count)
system.cpu0.statFuBusy::SimdDiv                     0      0.00%     30.61% # attempts to use FU when none available (Count)
system.cpu0.statFuBusy::SimdSqrt                    0      0.00%     30.61% # attempts to use FU when none available (Count)
system.cpu0.statFuBusy::SimdFloatAdd                0      0.00%     30.61% # attempts to use FU when none available (Count)
system.cpu0.statFuBusy::SimdFloatAlu                0      0.00%     30.61% # attempts to use FU when none available (Count)
system.cpu0.statFuBusy::SimdFloatCmp                0      0.00%     30.61% # attempts to use FU when none available (Count)
system.cpu0.statFuBusy::SimdFloatCvt                0      0.00%     30.61% # attempts to use FU when none available (Count)
system.cpu0.statFuBusy::SimdFloatDiv                0      0.00%     30.61% # attempts to use FU when none available (Count)
system.cpu0.statFuBusy::SimdFloatMisc               0      0.00%     30.61% # attempts to use FU when none available (Count)
system.cpu0.statFuBusy::SimdFloatMult               0      0.00%     30.61% # attempts to use FU when none available (Count)
system.cpu0.statFuBusy::SimdFloatMultAcc            0      0.00%     30.61% # attempts to use FU when none available (Count)
system.cpu0.statFuBusy::SimdFloatSqrt               0      0.00%     30.61% # attempts to use FU when none available (Count)
system.cpu0.statFuBusy::SimdReduceAdd               0      0.00%     30.61% # attempts to use FU when none available (Count)
system.cpu0.statFuBusy::SimdReduceAlu               0      0.00%     30.61% # attempts to use FU when none available (Count)
system.cpu0.statFuBusy::SimdReduceCmp               0      0.00%     30.61% # attempts to use FU when none available (Count)
system.cpu0.statFuBusy::SimdFloatReduceAdd            0      0.00%     30.61% # attempts to use FU when none available (Count)
system.cpu0.statFuBusy::SimdFloatReduceCmp            0      0.00%     30.61% # attempts to use FU when none available (Count)
system.cpu0.statFuBusy::SimdAes                     0      0.00%     30.61% # attempts to use FU when none available (Count)
system.cpu0.statFuBusy::SimdAesMix                  0      0.00%     30.61% # attempts to use FU when none available (Count)
system.cpu0.statFuBusy::SimdSha1Hash                0      0.00%     30.61% # attempts to use FU when none available (Count)
system.cpu0.statFuBusy::SimdSha1Hash2               0      0.00%     30.61% # attempts to use FU when none available (Count)
system.cpu0.statFuBusy::SimdSha256Hash              0      0.00%     30.61% # attempts to use FU when none available (Count)
system.cpu0.statFuBusy::SimdSha256Hash2             0      0.00%     30.61% # attempts to use FU when none available (Count)
system.cpu0.statFuBusy::SimdShaSigma2               0      0.00%     30.61% # attempts to use FU when none available (Count)
system.cpu0.statFuBusy::SimdShaSigma3               0      0.00%     30.61% # attempts to use FU when none available (Count)
system.cpu0.statFuBusy::SimdPredAlu                 0      0.00%     30.61% # attempts to use FU when none available (Count)
system.cpu0.statFuBusy::MemRead                  4820      0.59%     31.21% # attempts to use FU when none available (Count)
system.cpu0.statFuBusy::MemWrite                54343      6.69%     37.90% # attempts to use FU when none available (Count)
system.cpu0.statFuBusy::FloatMemRead           484063     59.60%     97.50% # attempts to use FU when none available (Count)
system.cpu0.statFuBusy::FloatMemWrite           20324      2.50%    100.00% # attempts to use FU when none available (Count)
system.cpu0.statFuBusy::IprAccess                   0      0.00%    100.00% # attempts to use FU when none available (Count)
system.cpu0.statFuBusy::InstPrefetch                0      0.00%    100.00% # attempts to use FU when none available (Count)
system.cpu0.statIssuedInstType_0::No_OpClass        66068      0.21%      0.21% # Number of instructions issued per FU type, per thread (Count)
system.cpu0.statIssuedInstType_0::IntAlu     14949227     47.63%     47.84% # Number of instructions issued per FU type, per thread (Count)
system.cpu0.statIssuedInstType_0::IntMult       132043      0.42%     48.26% # Number of instructions issued per FU type, per thread (Count)
system.cpu0.statIssuedInstType_0::IntDiv         2253      0.01%     48.27% # Number of instructions issued per FU type, per thread (Count)
system.cpu0.statIssuedInstType_0::FloatAdd      2369709      7.55%     55.82% # Number of instructions issued per FU type, per thread (Count)
system.cpu0.statIssuedInstType_0::FloatCmp       185228      0.59%     56.41% # Number of instructions issued per FU type, per thread (Count)
system.cpu0.statIssuedInstType_0::FloatCvt       830712      2.65%     59.06% # Number of instructions issued per FU type, per thread (Count)
system.cpu0.statIssuedInstType_0::FloatMult      1981625      6.31%     65.37% # Number of instructions issued per FU type, per thread (Count)
system.cpu0.statIssuedInstType_0::FloatMultAcc      1067069      3.40%     68.77% # Number of instructions issued per FU type, per thread (Count)
system.cpu0.statIssuedInstType_0::FloatDiv        66086      0.21%     68.98% # Number of instructions issued per FU type, per thread (Count)
system.cpu0.statIssuedInstType_0::FloatMisc       337866      1.08%     70.06% # Number of instructions issued per FU type, per thread (Count)
system.cpu0.statIssuedInstType_0::FloatSqrt            0      0.00%     70.06% # Number of instructions issued per FU type, per thread (Count)
system.cpu0.statIssuedInstType_0::SimdAdd            0      0.00%     70.06% # Number of instructions issued per FU type, per thread (Count)
system.cpu0.statIssuedInstType_0::SimdAddAcc            0      0.00%     70.06% # Number of instructions issued per FU type, per thread (Count)
system.cpu0.statIssuedInstType_0::SimdAlu            0      0.00%     70.06% # Number of instructions issued per FU type, per thread (Count)
system.cpu0.statIssuedInstType_0::SimdCmp            0      0.00%     70.06% # Number of instructions issued per FU type, per thread (Count)
system.cpu0.statIssuedInstType_0::SimdCvt            0      0.00%     70.06% # Number of instructions issued per FU type, per thread (Count)
system.cpu0.statIssuedInstType_0::SimdMisc            0      0.00%     70.06% # Number of instructions issued per FU type, per thread (Count)
system.cpu0.statIssuedInstType_0::SimdMult            0      0.00%     70.06% # Number of instructions issued per FU type, per thread (Count)
system.cpu0.statIssuedInstType_0::SimdMultAcc            0      0.00%     70.06% # Number of instructions issued per FU type, per thread (Count)
system.cpu0.statIssuedInstType_0::SimdShift            0      0.00%     70.06% # Number of instructions issued per FU type, per thread (Count)
system.cpu0.statIssuedInstType_0::SimdShiftAcc            0      0.00%     70.06% # Number of instructions issued per FU type, per thread (Count)
system.cpu0.statIssuedInstType_0::SimdDiv            0      0.00%     70.06% # Number of instructions issued per FU type, per thread (Count)
system.cpu0.statIssuedInstType_0::SimdSqrt            0      0.00%     70.06% # Number of instructions issued per FU type, per thread (Count)
system.cpu0.statIssuedInstType_0::SimdFloatAdd            0      0.00%     70.06% # Number of instructions issued per FU type, per thread (Count)
system.cpu0.statIssuedInstType_0::SimdFloatAlu            0      0.00%     70.06% # Number of instructions issued per FU type, per thread (Count)
system.cpu0.statIssuedInstType_0::SimdFloatCmp            0      0.00%     70.06% # Number of instructions issued per FU type, per thread (Count)
system.cpu0.statIssuedInstType_0::SimdFloatCvt            0      0.00%     70.06% # Number of instructions issued per FU type, per thread (Count)
system.cpu0.statIssuedInstType_0::SimdFloatDiv            0      0.00%     70.06% # Number of instructions issued per FU type, per thread (Count)
system.cpu0.statIssuedInstType_0::SimdFloatMisc            0      0.00%     70.06% # Number of instructions issued per FU type, per thread (Count)
system.cpu0.statIssuedInstType_0::SimdFloatMult            0      0.00%     70.06% # Number of instructions issued per FU type, per thread (Count)
system.cpu0.statIssuedInstType_0::SimdFloatMultAcc            0      0.00%     70.06% # Number of instructions issued per FU type, per thread (Count)
system.cpu0.statIssuedInstType_0::SimdFloatSqrt            0      0.00%     70.06% # Number of instructions issued per FU type, per thread (Count)
system.cpu0.statIssuedInstType_0::SimdReduceAdd            0      0.00%     70.06% # Number of instructions issued per FU type, per thread (Count)
system.cpu0.statIssuedInstType_0::SimdReduceAlu            0      0.00%     70.06% # Number of instructions issued per FU type, per thread (Count)
system.cpu0.statIssuedInstType_0::SimdReduceCmp            0      0.00%     70.06% # Number of instructions issued per FU type, per thread (Count)
system.cpu0.statIssuedInstType_0::SimdFloatReduceAdd            0      0.00%     70.06% # Number of instructions issued per FU type, per thread (Count)
system.cpu0.statIssuedInstType_0::SimdFloatReduceCmp            0      0.00%     70.06% # Number of instructions issued per FU type, per thread (Count)
system.cpu0.statIssuedInstType_0::SimdAes            0      0.00%     70.06% # Number of instructions issued per FU type, per thread (Count)
system.cpu0.statIssuedInstType_0::SimdAesMix            0      0.00%     70.06% # Number of instructions issued per FU type, per thread (Count)
system.cpu0.statIssuedInstType_0::SimdSha1Hash            0      0.00%     70.06% # Number of instructions issued per FU type, per thread (Count)
system.cpu0.statIssuedInstType_0::SimdSha1Hash2            0      0.00%     70.06% # Number of instructions issued per FU type, per thread (Count)
system.cpu0.statIssuedInstType_0::SimdSha256Hash            0      0.00%     70.06% # Number of instructions issued per FU type, per thread (Count)
system.cpu0.statIssuedInstType_0::SimdSha256Hash2            0      0.00%     70.06% # Number of instructions issued per FU type, per thread (Count)
system.cpu0.statIssuedInstType_0::SimdShaSigma2            0      0.00%     70.06% # Number of instructions issued per FU type, per thread (Count)
system.cpu0.statIssuedInstType_0::SimdShaSigma3            0      0.00%     70.06% # Number of instructions issued per FU type, per thread (Count)
system.cpu0.statIssuedInstType_0::SimdPredAlu            0      0.00%     70.06% # Number of instructions issued per FU type, per thread (Count)
system.cpu0.statIssuedInstType_0::MemRead      2120032      6.76%     76.81% # Number of instructions issued per FU type, per thread (Count)
system.cpu0.statIssuedInstType_0::MemWrite      1259929      4.01%     80.83% # Number of instructions issued per FU type, per thread (Count)
system.cpu0.statIssuedInstType_0::FloatMemRead      4038115     12.87%     93.70% # Number of instructions issued per FU type, per thread (Count)
system.cpu0.statIssuedInstType_0::FloatMemWrite      1978666      6.30%    100.00% # Number of instructions issued per FU type, per thread (Count)
system.cpu0.statIssuedInstType_0::IprAccess            0      0.00%    100.00% # Number of instructions issued per FU type, per thread (Count)
system.cpu0.statIssuedInstType_0::InstPrefetch            0      0.00%    100.00% # Number of instructions issued per FU type, per thread (Count)
system.cpu0.statIssuedInstType_0::total      31384628                       # Number of instructions issued per FU type, per thread (Count)
system.cpu0.issueRate                        1.306255                       # Inst issue rate ((Count/Cycle))
system.cpu0.fuBusy                             812201                       # FU busy when requested (Count)
system.cpu0.fuBusyRate                       0.025879                       # FU busy rate (busy events/executed inst) ((Count/Count))
system.cpu0.intInstQueueReads                61030987                       # Number of integer instruction queue reads (Count)
system.cpu0.intInstQueueWrites               18683748                       # Number of integer instruction queue writes (Count)
system.cpu0.intInstQueueWakeupAccesses       18497935                       # Number of integer instruction queue wakeup accesses (Count)
system.cpu0.fpInstQueueReads                 26461517                       # Number of floating instruction queue reads (Count)
system.cpu0.fpInstQueueWrites                12669435                       # Number of floating instruction queue writes (Count)
system.cpu0.fpInstQueueWakeupAccesses        12439769                       # Number of floating instruction queue wakeup accesses (Count)
system.cpu0.vecInstQueueReads                       0                       # Number of vector instruction queue reads (Count)
system.cpu0.vecInstQueueWrites                      0                       # Number of vector instruction queue writes (Count)
system.cpu0.vecInstQueueWakeupAccesses              0                       # Number of vector instruction queue wakeup accesses (Count)
system.cpu0.intAluAccesses                   18525393                       # Number of integer alu accesses (Count)
system.cpu0.fpAluAccesses                    13605368                       # Number of floating point alu accesses (Count)
system.cpu0.vecAluAccesses                          0                       # Number of vector alu accesses (Count)
system.cpu0.numInsts                         31345051                       # Number of executed instructions (Count)
system.cpu0.numLoadInsts                      6150819                       # Number of load instructions executed (Count)
system.cpu0.numSquashedInsts                    39577                       # Number of squashed instructions skipped in execute (Count)
system.cpu0.numSwp                                  0                       # Number of swp insts executed (Count)
system.cpu0.numNop                                  0                       # Number of nop insts executed (Count)
system.cpu0.numRefs                           9389211                       # Number of memory reference insts executed (Count)
system.cpu0.numBranches                       3288061                       # Number of branches executed (Count)
system.cpu0.numStoreInsts                     3238392                       # Number of stores executed (Count)
system.cpu0.numRate                          1.304608                       # Inst execution rate ((Count/Cycle))
system.cpu0.timesIdled                            594                       # Number of times that the entire CPU went into an idle state and unscheduled itself (Count)
system.cpu0.idleCycles                         116833                       # Total number of cycles that the CPU has spent unscheduled due to idling (Cycle)
system.cpu0.quiesceCycles                      131156                       # Total number of cycles that CPU has spent quiesced or waiting for an interrupt (Cycle)
system.cpu0.committedInsts                   30828829                       # Number of Instructions Simulated (Count)
system.cpu0.committedOps                     30828943                       # Number of Ops (including micro ops) Simulated (Count)
system.cpu0.cpi                              0.779349                       # CPI: Cycles Per Instruction ((Cycle/Count))
system.cpu0.totalCpi                         0.779349                       # CPI: Total CPI of All Threads ((Cycle/Count))
system.cpu0.ipc                              1.283122                       # IPC: Instructions Per Cycle ((Count/Cycle))
system.cpu0.totalIpc                         1.283122                       # IPC: Total IPC of All Threads ((Count/Cycle))
system.cpu0.intRegfileReads                  28354999                       # Number of integer regfile reads (Count)
system.cpu0.intRegfileWrites                 14745071                       # Number of integer regfile writes (Count)
system.cpu0.fpRegfileReads                   15205888                       # Number of floating regfile reads (Count)
system.cpu0.fpRegfileWrites                  10136796                       # Number of floating regfile writes (Count)
system.cpu0.miscRegfileReads                 24750666                       # number of misc regfile reads (Count)
system.cpu0.miscRegfileWrites                 6826022                       # number of misc regfile writes (Count)
system.cpu0.MemDepUnit__0.insertedLoads       5783080                       # Number of loads inserted to the mem dependence unit. (Count)
system.cpu0.MemDepUnit__0.insertedStores      3267520                       # Number of stores inserted to the mem dependence unit. (Count)
system.cpu0.MemDepUnit__0.conflictingLoads       861498                       # Number of conflicting loads. (Count)
system.cpu0.MemDepUnit__0.conflictingStores       382166                       # Number of conflicting stores. (Count)
system.cpu0.MemDepUnit__1.insertedLoads             0                       # Number of loads inserted to the mem dependence unit. (Count)
system.cpu0.MemDepUnit__1.insertedStores            0                       # Number of stores inserted to the mem dependence unit. (Count)
system.cpu0.MemDepUnit__1.conflictingLoads            0                       # Number of conflicting loads. (Count)
system.cpu0.MemDepUnit__1.conflictingStores            0                       # Number of conflicting stores. (Count)
system.cpu0.MemDepUnit__2.insertedLoads             0                       # Number of loads inserted to the mem dependence unit. (Count)
system.cpu0.MemDepUnit__2.insertedStores            0                       # Number of stores inserted to the mem dependence unit. (Count)
system.cpu0.MemDepUnit__2.conflictingLoads            0                       # Number of conflicting loads. (Count)
system.cpu0.MemDepUnit__2.conflictingStores            0                       # Number of conflicting stores. (Count)
system.cpu0.MemDepUnit__3.insertedLoads             0                       # Number of loads inserted to the mem dependence unit. (Count)
system.cpu0.MemDepUnit__3.insertedStores            0                       # Number of stores inserted to the mem dependence unit. (Count)
system.cpu0.MemDepUnit__3.conflictingLoads            0                       # Number of conflicting loads. (Count)
system.cpu0.MemDepUnit__3.conflictingStores            0                       # Number of conflicting stores. (Count)
system.cpu0.branchPred.lookups                3332698                       # Number of BP lookups (Count)
system.cpu0.branchPred.condPredicted          2328427                       # Number of conditional branches predicted (Count)
system.cpu0.branchPred.condIncorrect            21159                       # Number of conditional branches incorrect (Count)
system.cpu0.branchPred.BTBLookups             1901582                       # Number of BTB lookups (Count)
system.cpu0.branchPred.BTBHits                1899805                       # Number of BTB hits (Count)
system.cpu0.branchPred.BTBHitRatio           0.999066                       # BTB Hit Ratio (Ratio)
system.cpu0.branchPred.RASUsed                 462631                       # Number of times the RAS was used to get a target. (Count)
system.cpu0.branchPred.RASIncorrect                12                       # Number of incorrect RAS predictions. (Count)
system.cpu0.branchPred.indirectLookups            432                       # Number of indirect predictor lookups. (Count)
system.cpu0.branchPred.indirectHits               157                       # Number of indirect target hits. (Count)
system.cpu0.branchPred.indirectMisses             275                       # Number of indirect misses. (Count)
system.cpu0.branchPred.indirectMispredicted          126                       # Number of mispredicted indirect branches. (Count)
system.cpu0.commit.commitSquashedInsts         257114                       # The number of squashed insts skipped by commit (Count)
system.cpu0.commit.commitNonSpecStalls          66276                       # The number of times commit has been forced to stall to communicate backwards (Count)
system.cpu0.commit.branchMispredicts            20649                       # The number of times a branch was mispredicted (Count)
system.cpu0.commit.numCommittedDist::samples     23866609                       # Number of insts commited each cycle (Count)
system.cpu0.commit.numCommittedDist::mean     1.291719                       # Number of insts commited each cycle (Count)
system.cpu0.commit.numCommittedDist::stdev     2.238686                       # Number of insts commited each cycle (Count)
system.cpu0.commit.numCommittedDist::underflows            0      0.00%      0.00% # Number of insts commited each cycle (Count)
system.cpu0.commit.numCommittedDist::0       15001776     62.86%     62.86% # Number of insts commited each cycle (Count)
system.cpu0.commit.numCommittedDist::1        2052129      8.60%     71.46% # Number of insts commited each cycle (Count)
system.cpu0.commit.numCommittedDist::2        2150211      9.01%     80.46% # Number of insts commited each cycle (Count)
system.cpu0.commit.numCommittedDist::3        1565334      6.56%     87.02% # Number of insts commited each cycle (Count)
system.cpu0.commit.numCommittedDist::4         600422      2.52%     89.54% # Number of insts commited each cycle (Count)
system.cpu0.commit.numCommittedDist::5         633646      2.65%     92.19% # Number of insts commited each cycle (Count)
system.cpu0.commit.numCommittedDist::6         211072      0.88%     93.08% # Number of insts commited each cycle (Count)
system.cpu0.commit.numCommittedDist::7         272112      1.14%     94.22% # Number of insts commited each cycle (Count)
system.cpu0.commit.numCommittedDist::8        1379907      5.78%    100.00% # Number of insts commited each cycle (Count)
system.cpu0.commit.numCommittedDist::overflows            0      0.00%    100.00% # Number of insts commited each cycle (Count)
system.cpu0.commit.numCommittedDist::min_value            0                       # Number of insts commited each cycle (Count)
system.cpu0.commit.numCommittedDist::max_value            8                       # Number of insts commited each cycle (Count)
system.cpu0.commit.numCommittedDist::total     23866609                       # Number of insts commited each cycle (Count)
system.cpu0.commit.instsCommitted            30828829                       # Number of instructions committed (Count)
system.cpu0.commit.opsCommitted              30828943                       # Number of ops (including micro ops) committed (Count)
system.cpu0.commit.memRefs                    8953320                       # Number of memory references committed (Count)
system.cpu0.commit.loads                      5722615                       # Number of loads committed (Count)
system.cpu0.commit.amos                           129                       # Number of atomic instructions committed (Count)
system.cpu0.commit.membars                        225                       # Number of memory barriers committed (Count)
system.cpu0.commit.branches                   3272366                       # Number of branches committed (Count)
system.cpu0.commit.vectorInstructions               0                       # Number of committed Vector instructions. (Count)
system.cpu0.commit.floating                  12415101                       # Number of committed floating point instructions. (Count)
system.cpu0.commit.integer                   24936013                       # Number of committed integer instructions. (Count)
system.cpu0.commit.functionCalls               460316                       # Number of function calls committed. (Count)
system.cpu0.commit.committedInstType_0::No_OpClass        66017      0.21%      0.21% # Class of committed instruction (Count)
system.cpu0.commit.committedInstType_0::IntAlu     14849595     48.17%     48.38% # Class of committed instruction (Count)
system.cpu0.commit.committedInstType_0::IntMult       131766      0.43%     48.81% # Class of committed instruction (Count)
system.cpu0.commit.committedInstType_0::IntDiv         2223      0.01%     48.82% # Class of committed instruction (Count)
system.cpu0.commit.committedInstType_0::FloatAdd      2369069      7.68%     56.50% # Class of committed instruction (Count)
system.cpu0.commit.committedInstType_0::FloatCmp       183887      0.60%     57.10% # Class of committed instruction (Count)
system.cpu0.commit.committedInstType_0::FloatCvt       824090      2.67%     59.77% # Class of committed instruction (Count)
system.cpu0.commit.committedInstType_0::FloatMult      1979385      6.42%     66.19% # Class of committed instruction (Count)
system.cpu0.commit.committedInstType_0::FloatMultAcc      1066472      3.46%     69.65% # Class of committed instruction (Count)
system.cpu0.commit.committedInstType_0::FloatDiv        65794      0.21%     69.86% # Class of committed instruction (Count)
system.cpu0.commit.committedInstType_0::FloatMisc       337325      1.09%     70.96% # Class of committed instruction (Count)
system.cpu0.commit.committedInstType_0::FloatSqrt            0      0.00%     70.96% # Class of committed instruction (Count)
system.cpu0.commit.committedInstType_0::SimdAdd            0      0.00%     70.96% # Class of committed instruction (Count)
system.cpu0.commit.committedInstType_0::SimdAddAcc            0      0.00%     70.96% # Class of committed instruction (Count)
system.cpu0.commit.committedInstType_0::SimdAlu            0      0.00%     70.96% # Class of committed instruction (Count)
system.cpu0.commit.committedInstType_0::SimdCmp            0      0.00%     70.96% # Class of committed instruction (Count)
system.cpu0.commit.committedInstType_0::SimdCvt            0      0.00%     70.96% # Class of committed instruction (Count)
system.cpu0.commit.committedInstType_0::SimdMisc            0      0.00%     70.96% # Class of committed instruction (Count)
system.cpu0.commit.committedInstType_0::SimdMult            0      0.00%     70.96% # Class of committed instruction (Count)
system.cpu0.commit.committedInstType_0::SimdMultAcc            0      0.00%     70.96% # Class of committed instruction (Count)
system.cpu0.commit.committedInstType_0::SimdShift            0      0.00%     70.96% # Class of committed instruction (Count)
system.cpu0.commit.committedInstType_0::SimdShiftAcc            0      0.00%     70.96% # Class of committed instruction (Count)
system.cpu0.commit.committedInstType_0::SimdDiv            0      0.00%     70.96% # Class of committed instruction (Count)
system.cpu0.commit.committedInstType_0::SimdSqrt            0      0.00%     70.96% # Class of committed instruction (Count)
system.cpu0.commit.committedInstType_0::SimdFloatAdd            0      0.00%     70.96% # Class of committed instruction (Count)
system.cpu0.commit.committedInstType_0::SimdFloatAlu            0      0.00%     70.96% # Class of committed instruction (Count)
system.cpu0.commit.committedInstType_0::SimdFloatCmp            0      0.00%     70.96% # Class of committed instruction (Count)
system.cpu0.commit.committedInstType_0::SimdFloatCvt            0      0.00%     70.96% # Class of committed instruction (Count)
system.cpu0.commit.committedInstType_0::SimdFloatDiv            0      0.00%     70.96% # Class of committed instruction (Count)
system.cpu0.commit.committedInstType_0::SimdFloatMisc            0      0.00%     70.96% # Class of committed instruction (Count)
system.cpu0.commit.committedInstType_0::SimdFloatMult            0      0.00%     70.96% # Class of committed instruction (Count)
system.cpu0.commit.committedInstType_0::SimdFloatMultAcc            0      0.00%     70.96% # Class of committed instruction (Count)
system.cpu0.commit.committedInstType_0::SimdFloatSqrt            0      0.00%     70.96% # Class of committed instruction (Count)
system.cpu0.commit.committedInstType_0::SimdReduceAdd            0      0.00%     70.96% # Class of committed instruction (Count)
system.cpu0.commit.committedInstType_0::SimdReduceAlu            0      0.00%     70.96% # Class of committed instruction (Count)
system.cpu0.commit.committedInstType_0::SimdReduceCmp            0      0.00%     70.96% # Class of committed instruction (Count)
system.cpu0.commit.committedInstType_0::SimdFloatReduceAdd            0      0.00%     70.96% # Class of committed instruction (Count)
system.cpu0.commit.committedInstType_0::SimdFloatReduceCmp            0      0.00%     70.96% # Class of committed instruction (Count)
system.cpu0.commit.committedInstType_0::SimdAes            0      0.00%     70.96% # Class of committed instruction (Count)
system.cpu0.commit.committedInstType_0::SimdAesMix            0      0.00%     70.96% # Class of committed instruction (Count)
system.cpu0.commit.committedInstType_0::SimdSha1Hash            0      0.00%     70.96% # Class of committed instruction (Count)
system.cpu0.commit.committedInstType_0::SimdSha1Hash2            0      0.00%     70.96% # Class of committed instruction (Count)
system.cpu0.commit.committedInstType_0::SimdSha256Hash            0      0.00%     70.96% # Class of committed instruction (Count)
system.cpu0.commit.committedInstType_0::SimdSha256Hash2            0      0.00%     70.96% # Class of committed instruction (Count)
system.cpu0.commit.committedInstType_0::SimdShaSigma2            0      0.00%     70.96% # Class of committed instruction (Count)
system.cpu0.commit.committedInstType_0::SimdShaSigma3            0      0.00%     70.96% # Class of committed instruction (Count)
system.cpu0.commit.committedInstType_0::SimdPredAlu            0      0.00%     70.96% # Class of committed instruction (Count)
system.cpu0.commit.committedInstType_0::MemRead      2109147      6.84%     77.80% # Class of committed instruction (Count)
system.cpu0.commit.committedInstType_0::MemWrite      1255094      4.07%     81.87% # Class of committed instruction (Count)
system.cpu0.commit.committedInstType_0::FloatMemRead      3613597     11.72%     93.59% # Class of committed instruction (Count)
system.cpu0.commit.committedInstType_0::FloatMemWrite      1975482      6.41%    100.00% # Class of committed instruction (Count)
system.cpu0.commit.committedInstType_0::IprAccess            0      0.00%    100.00% # Class of committed instruction (Count)
system.cpu0.commit.committedInstType_0::InstPrefetch            0      0.00%    100.00% # Class of committed instruction (Count)
system.cpu0.commit.committedInstType_0::total     30828943                       # Class of committed instruction (Count)
system.cpu0.commit.commitEligibleSamples      1379907                       # number cycles where commit BW limit reached (Cycle)
system.cpu0.dcache.demandHits::cpu0.data      7893940                       # number of demand (read+write) hits (Count)
system.cpu0.dcache.demandHits::total          7893940                       # number of demand (read+write) hits (Count)
system.cpu0.dcache.overallHits::cpu0.data      7893940                       # number of overall hits (Count)
system.cpu0.dcache.overallHits::total         7893940                       # number of overall hits (Count)
system.cpu0.dcache.demandMisses::cpu0.data       395151                       # number of demand (read+write) misses (Count)
system.cpu0.dcache.demandMisses::total         395151                       # number of demand (read+write) misses (Count)
system.cpu0.dcache.overallMisses::cpu0.data       395151                       # number of overall misses (Count)
system.cpu0.dcache.overallMisses::total        395151                       # number of overall misses (Count)
system.cpu0.dcache.demandMissLatency::cpu0.data  12589060653                       # number of demand (read+write) miss ticks (Tick)
system.cpu0.dcache.demandMissLatency::total  12589060653                       # number of demand (read+write) miss ticks (Tick)
system.cpu0.dcache.overallMissLatency::cpu0.data  12589060653                       # number of overall miss ticks (Tick)
system.cpu0.dcache.overallMissLatency::total  12589060653                       # number of overall miss ticks (Tick)
system.cpu0.dcache.demandAccesses::cpu0.data      8289091                       # number of demand (read+write) accesses (Count)
system.cpu0.dcache.demandAccesses::total      8289091                       # number of demand (read+write) accesses (Count)
system.cpu0.dcache.overallAccesses::cpu0.data      8289091                       # number of overall (read+write) accesses (Count)
system.cpu0.dcache.overallAccesses::total      8289091                       # number of overall (read+write) accesses (Count)
system.cpu0.dcache.demandMissRate::cpu0.data     0.047671                       # miss rate for demand accesses (Ratio)
system.cpu0.dcache.demandMissRate::total     0.047671                       # miss rate for demand accesses (Ratio)
system.cpu0.dcache.overallMissRate::cpu0.data     0.047671                       # miss rate for overall accesses (Ratio)
system.cpu0.dcache.overallMissRate::total     0.047671                       # miss rate for overall accesses (Ratio)
system.cpu0.dcache.demandAvgMissLatency::cpu0.data 31858.860671                       # average overall miss latency in ticks ((Tick/Count))
system.cpu0.dcache.demandAvgMissLatency::total 31858.860671                       # average overall miss latency in ticks ((Tick/Count))
system.cpu0.dcache.overallAvgMissLatency::cpu0.data 31858.860671                       # average overall miss latency ((Tick/Count))
system.cpu0.dcache.overallAvgMissLatency::total 31858.860671                       # average overall miss latency ((Tick/Count))
system.cpu0.dcache.blockedCycles::no_mshrs      1065710                       # number of cycles access was blocked (Cycle)
system.cpu0.dcache.blockedCycles::no_targets          744                       # number of cycles access was blocked (Cycle)
system.cpu0.dcache.blockedCauses::no_mshrs        39742                       # number of times access was blocked (Count)
system.cpu0.dcache.blockedCauses::no_targets            5                       # number of times access was blocked (Count)
system.cpu0.dcache.avgBlocked::no_mshrs     26.815711                       # average number of cycles each access was blocked ((Cycle/Count))
system.cpu0.dcache.avgBlocked::no_targets   148.800000                       # average number of cycles each access was blocked ((Cycle/Count))
system.cpu0.dcache.writebacks::writebacks        93022                       # number of writebacks (Count)
system.cpu0.dcache.writebacks::total            93022                       # number of writebacks (Count)
system.cpu0.dcache.demandMshrHits::cpu0.data       286183                       # number of demand (read+write) MSHR hits (Count)
system.cpu0.dcache.demandMshrHits::total       286183                       # number of demand (read+write) MSHR hits (Count)
system.cpu0.dcache.overallMshrHits::cpu0.data       286183                       # number of overall MSHR hits (Count)
system.cpu0.dcache.overallMshrHits::total       286183                       # number of overall MSHR hits (Count)
system.cpu0.dcache.demandMshrMisses::cpu0.data       108968                       # number of demand (read+write) MSHR misses (Count)
system.cpu0.dcache.demandMshrMisses::total       108968                       # number of demand (read+write) MSHR misses (Count)
system.cpu0.dcache.overallMshrMisses::cpu0.data       108968                       # number of overall MSHR misses (Count)
system.cpu0.dcache.overallMshrMisses::total       108968                       # number of overall MSHR misses (Count)
system.cpu0.dcache.demandMshrMissLatency::cpu0.data   4650147965                       # number of demand (read+write) MSHR miss ticks (Tick)
system.cpu0.dcache.demandMshrMissLatency::total   4650147965                       # number of demand (read+write) MSHR miss ticks (Tick)
system.cpu0.dcache.overallMshrMissLatency::cpu0.data   4650147965                       # number of overall MSHR miss ticks (Tick)
system.cpu0.dcache.overallMshrMissLatency::total   4650147965                       # number of overall MSHR miss ticks (Tick)
system.cpu0.dcache.demandMshrMissRate::cpu0.data     0.013146                       # mshr miss ratio for demand accesses (Ratio)
system.cpu0.dcache.demandMshrMissRate::total     0.013146                       # mshr miss ratio for demand accesses (Ratio)
system.cpu0.dcache.overallMshrMissRate::cpu0.data     0.013146                       # mshr miss ratio for overall accesses (Ratio)
system.cpu0.dcache.overallMshrMissRate::total     0.013146                       # mshr miss ratio for overall accesses (Ratio)
system.cpu0.dcache.demandAvgMshrMissLatency::cpu0.data 42674.436211                       # average overall mshr miss latency ((Tick/Count))
system.cpu0.dcache.demandAvgMshrMissLatency::total 42674.436211                       # average overall mshr miss latency ((Tick/Count))
system.cpu0.dcache.overallAvgMshrMissLatency::cpu0.data 42674.436211                       # average overall mshr miss latency ((Tick/Count))
system.cpu0.dcache.overallAvgMshrMissLatency::total 42674.436211                       # average overall mshr miss latency ((Tick/Count))
system.cpu0.dcache.replacements                108387                       # number of replacements (Count)
system.cpu0.dcache.LoadLockedReq.hits::cpu0.data           70                       # number of LoadLockedReq hits (Count)
system.cpu0.dcache.LoadLockedReq.hits::total           70                       # number of LoadLockedReq hits (Count)
system.cpu0.dcache.LoadLockedReq.misses::cpu0.data           26                       # number of LoadLockedReq misses (Count)
system.cpu0.dcache.LoadLockedReq.misses::total           26                       # number of LoadLockedReq misses (Count)
system.cpu0.dcache.LoadLockedReq.missLatency::cpu0.data       567765                       # number of LoadLockedReq miss ticks (Tick)
system.cpu0.dcache.LoadLockedReq.missLatency::total       567765                       # number of LoadLockedReq miss ticks (Tick)
system.cpu0.dcache.LoadLockedReq.accesses::cpu0.data           96                       # number of LoadLockedReq accesses(hits+misses) (Count)
system.cpu0.dcache.LoadLockedReq.accesses::total           96                       # number of LoadLockedReq accesses(hits+misses) (Count)
system.cpu0.dcache.LoadLockedReq.missRate::cpu0.data     0.270833                       # miss rate for LoadLockedReq accesses (Ratio)
system.cpu0.dcache.LoadLockedReq.missRate::total     0.270833                       # miss rate for LoadLockedReq accesses (Ratio)
system.cpu0.dcache.LoadLockedReq.avgMissLatency::cpu0.data 21837.115385                       # average LoadLockedReq miss latency ((Tick/Count))
system.cpu0.dcache.LoadLockedReq.avgMissLatency::total 21837.115385                       # average LoadLockedReq miss latency ((Tick/Count))
system.cpu0.dcache.LoadLockedReq.mshrHits::cpu0.data            9                       # number of LoadLockedReq MSHR hits (Count)
system.cpu0.dcache.LoadLockedReq.mshrHits::total            9                       # number of LoadLockedReq MSHR hits (Count)
system.cpu0.dcache.LoadLockedReq.mshrMisses::cpu0.data           17                       # number of LoadLockedReq MSHR misses (Count)
system.cpu0.dcache.LoadLockedReq.mshrMisses::total           17                       # number of LoadLockedReq MSHR misses (Count)
system.cpu0.dcache.LoadLockedReq.mshrMissLatency::cpu0.data       449883                       # number of LoadLockedReq MSHR miss ticks (Tick)
system.cpu0.dcache.LoadLockedReq.mshrMissLatency::total       449883                       # number of LoadLockedReq MSHR miss ticks (Tick)
system.cpu0.dcache.LoadLockedReq.mshrMissRate::cpu0.data     0.177083                       # mshr miss rate for LoadLockedReq accesses (Ratio)
system.cpu0.dcache.LoadLockedReq.mshrMissRate::total     0.177083                       # mshr miss rate for LoadLockedReq accesses (Ratio)
system.cpu0.dcache.LoadLockedReq.avgMshrMissLatency::cpu0.data 26463.705882                       # average LoadLockedReq mshr miss latency ((Tick/Count))
system.cpu0.dcache.LoadLockedReq.avgMshrMissLatency::total 26463.705882                       # average LoadLockedReq mshr miss latency ((Tick/Count))
system.cpu0.dcache.ReadReq.hits::cpu0.data      4814035                       # number of ReadReq hits (Count)
system.cpu0.dcache.ReadReq.hits::total        4814035                       # number of ReadReq hits (Count)
system.cpu0.dcache.ReadReq.misses::cpu0.data       244560                       # number of ReadReq misses (Count)
system.cpu0.dcache.ReadReq.misses::total       244560                       # number of ReadReq misses (Count)
system.cpu0.dcache.ReadReq.missLatency::cpu0.data   2865358773                       # number of ReadReq miss ticks (Tick)
system.cpu0.dcache.ReadReq.missLatency::total   2865358773                       # number of ReadReq miss ticks (Tick)
system.cpu0.dcache.ReadReq.accesses::cpu0.data      5058595                       # number of ReadReq accesses(hits+misses) (Count)
system.cpu0.dcache.ReadReq.accesses::total      5058595                       # number of ReadReq accesses(hits+misses) (Count)
system.cpu0.dcache.ReadReq.missRate::cpu0.data     0.048345                       # miss rate for ReadReq accesses (Ratio)
system.cpu0.dcache.ReadReq.missRate::total     0.048345                       # miss rate for ReadReq accesses (Ratio)
system.cpu0.dcache.ReadReq.avgMissLatency::cpu0.data 11716.383599                       # average ReadReq miss latency ((Tick/Count))
system.cpu0.dcache.ReadReq.avgMissLatency::total 11716.383599                       # average ReadReq miss latency ((Tick/Count))
system.cpu0.dcache.ReadReq.mshrHits::cpu0.data       194034                       # number of ReadReq MSHR hits (Count)
system.cpu0.dcache.ReadReq.mshrHits::total       194034                       # number of ReadReq MSHR hits (Count)
system.cpu0.dcache.ReadReq.mshrMisses::cpu0.data        50526                       # number of ReadReq MSHR misses (Count)
system.cpu0.dcache.ReadReq.mshrMisses::total        50526                       # number of ReadReq MSHR misses (Count)
system.cpu0.dcache.ReadReq.mshrMissLatency::cpu0.data    634442256                       # number of ReadReq MSHR miss ticks (Tick)
system.cpu0.dcache.ReadReq.mshrMissLatency::total    634442256                       # number of ReadReq MSHR miss ticks (Tick)
system.cpu0.dcache.ReadReq.mshrMissRate::cpu0.data     0.009988                       # mshr miss rate for ReadReq accesses (Ratio)
system.cpu0.dcache.ReadReq.mshrMissRate::total     0.009988                       # mshr miss rate for ReadReq accesses (Ratio)
system.cpu0.dcache.ReadReq.avgMshrMissLatency::cpu0.data 12556.748130                       # average ReadReq mshr miss latency ((Tick/Count))
system.cpu0.dcache.ReadReq.avgMshrMissLatency::total 12556.748130                       # average ReadReq mshr miss latency ((Tick/Count))
system.cpu0.dcache.StoreCondReq.hits::cpu0.data           68                       # number of StoreCondReq hits (Count)
system.cpu0.dcache.StoreCondReq.hits::total           68                       # number of StoreCondReq hits (Count)
system.cpu0.dcache.StoreCondReq.misses::cpu0.data           12                       # number of StoreCondReq misses (Count)
system.cpu0.dcache.StoreCondReq.misses::total           12                       # number of StoreCondReq misses (Count)
system.cpu0.dcache.StoreCondReq.missLatency::cpu0.data       153846                       # number of StoreCondReq miss ticks (Tick)
system.cpu0.dcache.StoreCondReq.missLatency::total       153846                       # number of StoreCondReq miss ticks (Tick)
system.cpu0.dcache.StoreCondReq.accesses::cpu0.data           80                       # number of StoreCondReq accesses(hits+misses) (Count)
system.cpu0.dcache.StoreCondReq.accesses::total           80                       # number of StoreCondReq accesses(hits+misses) (Count)
system.cpu0.dcache.StoreCondReq.missRate::cpu0.data     0.150000                       # miss rate for StoreCondReq accesses (Ratio)
system.cpu0.dcache.StoreCondReq.missRate::total     0.150000                       # miss rate for StoreCondReq accesses (Ratio)
system.cpu0.dcache.StoreCondReq.avgMissLatency::cpu0.data 12820.500000                       # average StoreCondReq miss latency ((Tick/Count))
system.cpu0.dcache.StoreCondReq.avgMissLatency::total 12820.500000                       # average StoreCondReq miss latency ((Tick/Count))
system.cpu0.dcache.StoreCondReq.mshrMisses::cpu0.data           12                       # number of StoreCondReq MSHR misses (Count)
system.cpu0.dcache.StoreCondReq.mshrMisses::total           12                       # number of StoreCondReq MSHR misses (Count)
system.cpu0.dcache.StoreCondReq.mshrMissLatency::cpu0.data       145854                       # number of StoreCondReq MSHR miss ticks (Tick)
system.cpu0.dcache.StoreCondReq.mshrMissLatency::total       145854                       # number of StoreCondReq MSHR miss ticks (Tick)
system.cpu0.dcache.StoreCondReq.mshrMissRate::cpu0.data     0.150000                       # mshr miss rate for StoreCondReq accesses (Ratio)
system.cpu0.dcache.StoreCondReq.mshrMissRate::total     0.150000                       # mshr miss rate for StoreCondReq accesses (Ratio)
system.cpu0.dcache.StoreCondReq.avgMshrMissLatency::cpu0.data 12154.500000                       # average StoreCondReq mshr miss latency ((Tick/Count))
system.cpu0.dcache.StoreCondReq.avgMshrMissLatency::total 12154.500000                       # average StoreCondReq mshr miss latency ((Tick/Count))
system.cpu0.dcache.SwapReq.hits::cpu0.data          111                       # number of SwapReq hits (Count)
system.cpu0.dcache.SwapReq.hits::total            111                       # number of SwapReq hits (Count)
system.cpu0.dcache.SwapReq.misses::cpu0.data           18                       # number of SwapReq misses (Count)
system.cpu0.dcache.SwapReq.misses::total           18                       # number of SwapReq misses (Count)
system.cpu0.dcache.SwapReq.missLatency::cpu0.data       622044                       # number of SwapReq miss ticks (Tick)
system.cpu0.dcache.SwapReq.missLatency::total       622044                       # number of SwapReq miss ticks (Tick)
system.cpu0.dcache.SwapReq.accesses::cpu0.data          129                       # number of SwapReq accesses(hits+misses) (Count)
system.cpu0.dcache.SwapReq.accesses::total          129                       # number of SwapReq accesses(hits+misses) (Count)
system.cpu0.dcache.SwapReq.missRate::cpu0.data     0.139535                       # miss rate for SwapReq accesses (Ratio)
system.cpu0.dcache.SwapReq.missRate::total     0.139535                       # miss rate for SwapReq accesses (Ratio)
system.cpu0.dcache.SwapReq.avgMissLatency::cpu0.data        34558                       # average SwapReq miss latency ((Tick/Count))
system.cpu0.dcache.SwapReq.avgMissLatency::total        34558                       # average SwapReq miss latency ((Tick/Count))
system.cpu0.dcache.SwapReq.mshrHits::cpu0.data            6                       # number of SwapReq MSHR hits (Count)
system.cpu0.dcache.SwapReq.mshrHits::total            6                       # number of SwapReq MSHR hits (Count)
system.cpu0.dcache.SwapReq.mshrMisses::cpu0.data           12                       # number of SwapReq MSHR misses (Count)
system.cpu0.dcache.SwapReq.mshrMisses::total           12                       # number of SwapReq MSHR misses (Count)
system.cpu0.dcache.SwapReq.mshrMissLatency::cpu0.data       610056                       # number of SwapReq MSHR miss ticks (Tick)
system.cpu0.dcache.SwapReq.mshrMissLatency::total       610056                       # number of SwapReq MSHR miss ticks (Tick)
system.cpu0.dcache.SwapReq.mshrMissRate::cpu0.data     0.093023                       # mshr miss rate for SwapReq accesses (Ratio)
system.cpu0.dcache.SwapReq.mshrMissRate::total     0.093023                       # mshr miss rate for SwapReq accesses (Ratio)
system.cpu0.dcache.SwapReq.avgMshrMissLatency::cpu0.data        50838                       # average SwapReq mshr miss latency ((Tick/Count))
system.cpu0.dcache.SwapReq.avgMshrMissLatency::total        50838                       # average SwapReq mshr miss latency ((Tick/Count))
system.cpu0.dcache.WriteReq.hits::cpu0.data      3079905                       # number of WriteReq hits (Count)
system.cpu0.dcache.WriteReq.hits::total       3079905                       # number of WriteReq hits (Count)
system.cpu0.dcache.WriteReq.misses::cpu0.data       150591                       # number of WriteReq misses (Count)
system.cpu0.dcache.WriteReq.misses::total       150591                       # number of WriteReq misses (Count)
system.cpu0.dcache.WriteReq.missLatency::cpu0.data   9723701880                       # number of WriteReq miss ticks (Tick)
system.cpu0.dcache.WriteReq.missLatency::total   9723701880                       # number of WriteReq miss ticks (Tick)
system.cpu0.dcache.WriteReq.accesses::cpu0.data      3230496                       # number of WriteReq accesses(hits+misses) (Count)
system.cpu0.dcache.WriteReq.accesses::total      3230496                       # number of WriteReq accesses(hits+misses) (Count)
system.cpu0.dcache.WriteReq.missRate::cpu0.data     0.046615                       # miss rate for WriteReq accesses (Ratio)
system.cpu0.dcache.WriteReq.missRate::total     0.046615                       # miss rate for WriteReq accesses (Ratio)
system.cpu0.dcache.WriteReq.avgMissLatency::cpu0.data 64570.272327                       # average WriteReq miss latency ((Tick/Count))
system.cpu0.dcache.WriteReq.avgMissLatency::total 64570.272327                       # average WriteReq miss latency ((Tick/Count))
system.cpu0.dcache.WriteReq.mshrHits::cpu0.data        92149                       # number of WriteReq MSHR hits (Count)
system.cpu0.dcache.WriteReq.mshrHits::total        92149                       # number of WriteReq MSHR hits (Count)
system.cpu0.dcache.WriteReq.mshrMisses::cpu0.data        58442                       # number of WriteReq MSHR misses (Count)
system.cpu0.dcache.WriteReq.mshrMisses::total        58442                       # number of WriteReq MSHR misses (Count)
system.cpu0.dcache.WriteReq.mshrMissLatency::cpu0.data   4015705709                       # number of WriteReq MSHR miss ticks (Tick)
system.cpu0.dcache.WriteReq.mshrMissLatency::total   4015705709                       # number of WriteReq MSHR miss ticks (Tick)
system.cpu0.dcache.WriteReq.mshrMissRate::cpu0.data     0.018091                       # mshr miss rate for WriteReq accesses (Ratio)
system.cpu0.dcache.WriteReq.mshrMissRate::total     0.018091                       # mshr miss rate for WriteReq accesses (Ratio)
system.cpu0.dcache.WriteReq.avgMshrMissLatency::cpu0.data 68712.667414                       # average WriteReq mshr miss latency ((Tick/Count))
system.cpu0.dcache.WriteReq.avgMshrMissLatency::total 68712.667414                       # average WriteReq mshr miss latency ((Tick/Count))
system.cpu0.dcache.power_state.pwrStateResidencyTicks::UNDEFINED   8037294327                       # Cumulative time (in ticks) in various power states (Tick)
system.cpu0.dcache.tags.tagsInUse          509.922791                       # Average ticks per tags in use ((Tick/Count))
system.cpu0.dcache.tags.totalRefs             8003244                       # Total number of references to valid blocks. (Count)
system.cpu0.dcache.tags.sampledRefs            108933                       # Sample count of references to valid blocks. (Count)
system.cpu0.dcache.tags.avgRefs             73.469417                       # Average number of references to valid blocks. ((Count/Count))
system.cpu0.dcache.tags.warmupTick             275058                       # The tick when the warmup percentage was hit. (Tick)
system.cpu0.dcache.tags.occupancies::cpu0.data   509.922791                       # Average occupied blocks per tick, per requestor ((Count/Tick))
system.cpu0.dcache.tags.avgOccs::cpu0.data     0.995943                       # Average percentage of cache occupancy ((Ratio/Tick))
system.cpu0.dcache.tags.avgOccs::total       0.995943                       # Average percentage of cache occupancy ((Ratio/Tick))
system.cpu0.dcache.tags.occupanciesTaskId::1024          512                       # Occupied blocks per task id (Count)
system.cpu0.dcache.tags.ageTaskId_1024::0           69                       # Occupied blocks per task id, per block age (Count)
system.cpu0.dcache.tags.ageTaskId_1024::1          443                       # Occupied blocks per task id, per block age (Count)
system.cpu0.dcache.tags.ratioOccsTaskId::1024            1                       # Ratio of occupied blocks and all blocks, per task id (Ratio)
system.cpu0.dcache.tags.tagAccesses          66424101                       # Number of tag accesses (Count)
system.cpu0.dcache.tags.dataAccesses         66424101                       # Number of data accesses (Count)
system.cpu0.dcache.tags.power_state.pwrStateResidencyTicks::UNDEFINED   8037294327                       # Cumulative time (in ticks) in various power states (Tick)
system.cpu0.decode.idleCycles                 6418255                       # Number of cycles decode is idle (Cycle)
system.cpu0.decode.blockedCycles             11845112                       # Number of cycles decode is blocked (Cycle)
system.cpu0.decode.runCycles                  5436559                       # Number of cycles decode is running (Cycle)
system.cpu0.decode.unblockCycles               188213                       # Number of cycles decode is unblocking (Cycle)
system.cpu0.decode.squashCycles                 21449                       # Number of cycles decode is squashing (Cycle)
system.cpu0.decode.branchResolved             1888401                       # Number of times decode resolved a branch (Count)
system.cpu0.decode.branchMispred                  519                       # Number of times decode detected a branch misprediction (Count)
system.cpu0.decode.decodedInsts              31262577                       # Number of instructions handled by decode (Count)
system.cpu0.decode.squashedInsts                 2206                       # Number of squashed instructions handled by decode (Count)
system.cpu0.dtb_walker_cache.blockedCycles::no_mshrs            0                       # number of cycles access was blocked (Cycle)
system.cpu0.dtb_walker_cache.blockedCycles::no_targets            0                       # number of cycles access was blocked (Cycle)
system.cpu0.dtb_walker_cache.blockedCauses::no_mshrs            0                       # number of times access was blocked (Count)
system.cpu0.dtb_walker_cache.blockedCauses::no_targets            0                       # number of times access was blocked (Count)
system.cpu0.dtb_walker_cache.avgBlocked::no_mshrs          nan                       # average number of cycles each access was blocked ((Cycle/Count))
system.cpu0.dtb_walker_cache.avgBlocked::no_targets          nan                       # average number of cycles each access was blocked ((Cycle/Count))
system.cpu0.dtb_walker_cache.replacements            0                       # number of replacements (Count)
system.cpu0.dtb_walker_cache.power_state.pwrStateResidencyTicks::UNDEFINED   8037294327                       # Cumulative time (in ticks) in various power states (Tick)
system.cpu0.dtb_walker_cache.tags.tagsInUse            0                       # Average ticks per tags in use ((Tick/Count))
system.cpu0.dtb_walker_cache.tags.totalRefs            0                       # Total number of references to valid blocks. (Count)
system.cpu0.dtb_walker_cache.tags.sampledRefs            0                       # Sample count of references to valid blocks. (Count)
system.cpu0.dtb_walker_cache.tags.avgRefs          nan                       # Average number of references to valid blocks. ((Count/Count))
system.cpu0.dtb_walker_cache.tags.warmupTick            0                       # The tick when the warmup percentage was hit. (Tick)
system.cpu0.dtb_walker_cache.tags.tagAccesses            0                       # Number of tag accesses (Count)
system.cpu0.dtb_walker_cache.tags.dataAccesses            0                       # Number of data accesses (Count)
system.cpu0.dtb_walker_cache.tags.power_state.pwrStateResidencyTicks::UNDEFINED   8037294327                       # Cumulative time (in ticks) in various power states (Tick)
system.cpu0.fetch.icacheStallCycles          14501881                       # Number of cycles fetch is stalled on an Icache miss (Cycle)
system.cpu0.fetch.insts                      31403817                       # Number of instructions fetch has processed (Count)
system.cpu0.fetch.branches                    3332698                       # Number of branches that fetch encountered (Count)
system.cpu0.fetch.predictedBranches           2362593                       # Number of branches that fetch has predicted taken (Count)
system.cpu0.fetch.cycles                    107784858                       # Number of cycles fetch has run and was not squashing or blocked (Cycle)
system.cpu0.fetch.squashCycles                  43920                       # Number of cycles fetch has spent squashing (Cycle)
system.cpu0.fetch.miscStallCycles                3693                       # Number of cycles fetch has spent waiting on interrupts, or bad addresses, or out of MSHRs (Cycle)
system.cpu0.fetch.pendingTrapStallCycles           12                       # Number of stall cycles due to pending traps (Cycle)
system.cpu0.fetch.icacheWaitRetryStallCycles           60                       # Number of stall cycles due to full MSHR (Cycle)
system.cpu0.fetch.cacheLines                  7241996                       # Number of cache lines fetched (Count)
system.cpu0.fetch.icacheSquashes              3624772                       # Number of outstanding Icache misses that were squashed (Count)
system.cpu0.fetch.nisnDist::samples          23909588                       # Number of instructions fetched each cycle (Total) (Count)
system.cpu0.fetch.nisnDist::mean             1.313449                       # Number of instructions fetched each cycle (Total) (Count)
system.cpu0.fetch.nisnDist::stdev            2.671410                       # Number of instructions fetched each cycle (Total) (Count)
system.cpu0.fetch.nisnDist::underflows              0      0.00%      0.00% # Number of instructions fetched each cycle (Total) (Count)
system.cpu0.fetch.nisnDist::0                17987825     75.23%     75.23% # Number of instructions fetched each cycle (Total) (Count)
system.cpu0.fetch.nisnDist::1                  569040      2.38%     77.61% # Number of instructions fetched each cycle (Total) (Count)
system.cpu0.fetch.nisnDist::2                 1100901      4.60%     82.22% # Number of instructions fetched each cycle (Total) (Count)
system.cpu0.fetch.nisnDist::3                   99528      0.42%     82.63% # Number of instructions fetched each cycle (Total) (Count)
system.cpu0.fetch.nisnDist::4                 1028031      4.30%     86.93% # Number of instructions fetched each cycle (Total) (Count)
system.cpu0.fetch.nisnDist::5                  154935      0.65%     87.58% # Number of instructions fetched each cycle (Total) (Count)
system.cpu0.fetch.nisnDist::6                  125854      0.53%     88.11% # Number of instructions fetched each cycle (Total) (Count)
system.cpu0.fetch.nisnDist::7                   55106      0.23%     88.34% # Number of instructions fetched each cycle (Total) (Count)
system.cpu0.fetch.nisnDist::8                 2788368     11.66%    100.00% # Number of instructions fetched each cycle (Total) (Count)
system.cpu0.fetch.nisnDist::overflows               0      0.00%    100.00% # Number of instructions fetched each cycle (Total) (Count)
system.cpu0.fetch.nisnDist::min_value               0                       # Number of instructions fetched each cycle (Total) (Count)
system.cpu0.fetch.nisnDist::max_value               8                       # Number of instructions fetched each cycle (Total) (Count)
system.cpu0.fetch.nisnDist::total            23909588                       # Number of instructions fetched each cycle (Total) (Count)
system.cpu0.fetch.branchRate                 0.138710                       # Number of branch fetches per cycle (Ratio)
system.cpu0.fetch.rate                       1.307053                       # Number of inst fetches per cycle ((Count/Cycle))
system.cpu0.icache.demandHits::cpu0.inst      7240434                       # number of demand (read+write) hits (Count)
system.cpu0.icache.demandHits::total          7240434                       # number of demand (read+write) hits (Count)
system.cpu0.icache.overallHits::cpu0.inst      7240434                       # number of overall hits (Count)
system.cpu0.icache.overallHits::total         7240434                       # number of overall hits (Count)
system.cpu0.icache.demandMisses::cpu0.inst         1558                       # number of demand (read+write) misses (Count)
system.cpu0.icache.demandMisses::total           1558                       # number of demand (read+write) misses (Count)
system.cpu0.icache.overallMisses::cpu0.inst         1558                       # number of overall misses (Count)
system.cpu0.icache.overallMisses::total          1558                       # number of overall misses (Count)
system.cpu0.icache.demandMissLatency::cpu0.inst    124293581                       # number of demand (read+write) miss ticks (Tick)
system.cpu0.icache.demandMissLatency::total    124293581                       # number of demand (read+write) miss ticks (Tick)
system.cpu0.icache.overallMissLatency::cpu0.inst    124293581                       # number of overall miss ticks (Tick)
system.cpu0.icache.overallMissLatency::total    124293581                       # number of overall miss ticks (Tick)
system.cpu0.icache.demandAccesses::cpu0.inst      7241992                       # number of demand (read+write) accesses (Count)
system.cpu0.icache.demandAccesses::total      7241992                       # number of demand (read+write) accesses (Count)
system.cpu0.icache.overallAccesses::cpu0.inst      7241992                       # number of overall (read+write) accesses (Count)
system.cpu0.icache.overallAccesses::total      7241992                       # number of overall (read+write) accesses (Count)
system.cpu0.icache.demandMissRate::cpu0.inst     0.000215                       # miss rate for demand accesses (Ratio)
system.cpu0.icache.demandMissRate::total     0.000215                       # miss rate for demand accesses (Ratio)
system.cpu0.icache.overallMissRate::cpu0.inst     0.000215                       # miss rate for overall accesses (Ratio)
system.cpu0.icache.overallMissRate::total     0.000215                       # miss rate for overall accesses (Ratio)
system.cpu0.icache.demandAvgMissLatency::cpu0.inst 79777.651476                       # average overall miss latency in ticks ((Tick/Count))
system.cpu0.icache.demandAvgMissLatency::total 79777.651476                       # average overall miss latency in ticks ((Tick/Count))
system.cpu0.icache.overallAvgMissLatency::cpu0.inst 79777.651476                       # average overall miss latency ((Tick/Count))
system.cpu0.icache.overallAvgMissLatency::total 79777.651476                       # average overall miss latency ((Tick/Count))
system.cpu0.icache.blockedCycles::no_mshrs         1524                       # number of cycles access was blocked (Cycle)
system.cpu0.icache.blockedCycles::no_targets          109                       # number of cycles access was blocked (Cycle)
system.cpu0.icache.blockedCauses::no_mshrs           12                       # number of times access was blocked (Count)
system.cpu0.icache.blockedCauses::no_targets            1                       # number of times access was blocked (Count)
system.cpu0.icache.avgBlocked::no_mshrs           127                       # average number of cycles each access was blocked ((Cycle/Count))
system.cpu0.icache.avgBlocked::no_targets          109                       # average number of cycles each access was blocked ((Cycle/Count))
system.cpu0.icache.writebacks::writebacks          186                       # number of writebacks (Count)
system.cpu0.icache.writebacks::total              186                       # number of writebacks (Count)
system.cpu0.icache.demandMshrHits::cpu0.inst          871                       # number of demand (read+write) MSHR hits (Count)
system.cpu0.icache.demandMshrHits::total          871                       # number of demand (read+write) MSHR hits (Count)
system.cpu0.icache.overallMshrHits::cpu0.inst          871                       # number of overall MSHR hits (Count)
system.cpu0.icache.overallMshrHits::total          871                       # number of overall MSHR hits (Count)
system.cpu0.icache.demandMshrMisses::cpu0.inst          687                       # number of demand (read+write) MSHR misses (Count)
system.cpu0.icache.demandMshrMisses::total          687                       # number of demand (read+write) MSHR misses (Count)
system.cpu0.icache.overallMshrMisses::cpu0.inst          687                       # number of overall MSHR misses (Count)
system.cpu0.icache.overallMshrMisses::total          687                       # number of overall MSHR misses (Count)
system.cpu0.icache.demandMshrMissLatency::cpu0.inst     58436172                       # number of demand (read+write) MSHR miss ticks (Tick)
system.cpu0.icache.demandMshrMissLatency::total     58436172                       # number of demand (read+write) MSHR miss ticks (Tick)
system.cpu0.icache.overallMshrMissLatency::cpu0.inst     58436172                       # number of overall MSHR miss ticks (Tick)
system.cpu0.icache.overallMshrMissLatency::total     58436172                       # number of overall MSHR miss ticks (Tick)
system.cpu0.icache.demandMshrMissRate::cpu0.inst     0.000095                       # mshr miss ratio for demand accesses (Ratio)
system.cpu0.icache.demandMshrMissRate::total     0.000095                       # mshr miss ratio for demand accesses (Ratio)
system.cpu0.icache.overallMshrMissRate::cpu0.inst     0.000095                       # mshr miss ratio for overall accesses (Ratio)
system.cpu0.icache.overallMshrMissRate::total     0.000095                       # mshr miss ratio for overall accesses (Ratio)
system.cpu0.icache.demandAvgMshrMissLatency::cpu0.inst 85059.930131                       # average overall mshr miss latency ((Tick/Count))
system.cpu0.icache.demandAvgMshrMissLatency::total 85059.930131                       # average overall mshr miss latency ((Tick/Count))
system.cpu0.icache.overallAvgMshrMissLatency::cpu0.inst 85059.930131                       # average overall mshr miss latency ((Tick/Count))
system.cpu0.icache.overallAvgMshrMissLatency::total 85059.930131                       # average overall mshr miss latency ((Tick/Count))
system.cpu0.icache.replacements                   186                       # number of replacements (Count)
system.cpu0.icache.ReadReq.hits::cpu0.inst      7240434                       # number of ReadReq hits (Count)
system.cpu0.icache.ReadReq.hits::total        7240434                       # number of ReadReq hits (Count)
system.cpu0.icache.ReadReq.misses::cpu0.inst         1558                       # number of ReadReq misses (Count)
system.cpu0.icache.ReadReq.misses::total         1558                       # number of ReadReq misses (Count)
system.cpu0.icache.ReadReq.missLatency::cpu0.inst    124293581                       # number of ReadReq miss ticks (Tick)
system.cpu0.icache.ReadReq.missLatency::total    124293581                       # number of ReadReq miss ticks (Tick)
system.cpu0.icache.ReadReq.accesses::cpu0.inst      7241992                       # number of ReadReq accesses(hits+misses) (Count)
system.cpu0.icache.ReadReq.accesses::total      7241992                       # number of ReadReq accesses(hits+misses) (Count)
system.cpu0.icache.ReadReq.missRate::cpu0.inst     0.000215                       # miss rate for ReadReq accesses (Ratio)
system.cpu0.icache.ReadReq.missRate::total     0.000215                       # miss rate for ReadReq accesses (Ratio)
system.cpu0.icache.ReadReq.avgMissLatency::cpu0.inst 79777.651476                       # average ReadReq miss latency ((Tick/Count))
system.cpu0.icache.ReadReq.avgMissLatency::total 79777.651476                       # average ReadReq miss latency ((Tick/Count))
system.cpu0.icache.ReadReq.mshrHits::cpu0.inst          871                       # number of ReadReq MSHR hits (Count)
system.cpu0.icache.ReadReq.mshrHits::total          871                       # number of ReadReq MSHR hits (Count)
system.cpu0.icache.ReadReq.mshrMisses::cpu0.inst          687                       # number of ReadReq MSHR misses (Count)
system.cpu0.icache.ReadReq.mshrMisses::total          687                       # number of ReadReq MSHR misses (Count)
system.cpu0.icache.ReadReq.mshrMissLatency::cpu0.inst     58436172                       # number of ReadReq MSHR miss ticks (Tick)
system.cpu0.icache.ReadReq.mshrMissLatency::total     58436172                       # number of ReadReq MSHR miss ticks (Tick)
system.cpu0.icache.ReadReq.mshrMissRate::cpu0.inst     0.000095                       # mshr miss rate for ReadReq accesses (Ratio)
system.cpu0.icache.ReadReq.mshrMissRate::total     0.000095                       # mshr miss rate for ReadReq accesses (Ratio)
system.cpu0.icache.ReadReq.avgMshrMissLatency::cpu0.inst 85059.930131                       # average ReadReq mshr miss latency ((Tick/Count))
system.cpu0.icache.ReadReq.avgMshrMissLatency::total 85059.930131                       # average ReadReq mshr miss latency ((Tick/Count))
system.cpu0.icache.power_state.pwrStateResidencyTicks::UNDEFINED   8037294327                       # Cumulative time (in ticks) in various power states (Tick)
system.cpu0.icache.tags.tagsInUse          413.762528                       # Average ticks per tags in use ((Tick/Count))
system.cpu0.icache.tags.totalRefs             7241121                       # Total number of references to valid blocks. (Count)
system.cpu0.icache.tags.sampledRefs               687                       # Sample count of references to valid blocks. (Count)
system.cpu0.icache.tags.avgRefs          10540.205240                       # Average number of references to valid blocks. ((Count/Count))
system.cpu0.icache.tags.warmupTick              92241                       # The tick when the warmup percentage was hit. (Tick)
system.cpu0.icache.tags.occupancies::cpu0.inst   413.762528                       # Average occupied blocks per tick, per requestor ((Count/Tick))
system.cpu0.icache.tags.avgOccs::cpu0.inst     0.808130                       # Average percentage of cache occupancy ((Ratio/Tick))
system.cpu0.icache.tags.avgOccs::total       0.808130                       # Average percentage of cache occupancy ((Ratio/Tick))
system.cpu0.icache.tags.occupanciesTaskId::1024          501                       # Occupied blocks per task id (Count)
system.cpu0.icache.tags.ageTaskId_1024::0           99                       # Occupied blocks per task id, per block age (Count)
system.cpu0.icache.tags.ageTaskId_1024::1           26                       # Occupied blocks per task id, per block age (Count)
[...]
system.mem_ctrls.dram.perBankWrBursts::11            0                       # Per bank write bursts (Count)
system.mem_ctrls.dram.perBankWrBursts::12            0                       # Per bank write bursts (Count)
system.mem_ctrls.dram.perBankWrBursts::13            0                       # Per bank write bursts (Count)
system.mem_ctrls.dram.perBankWrBursts::14            0                       # Per bank write bursts (Count)
system.mem_ctrls.dram.perBankWrBursts::15            0                       # Per bank write bursts (Count)
system.mem_ctrls.dram.totQLat               744102074                       # Total ticks spent queuing (Tick)
system.mem_ctrls.dram.totBusLat             254485000                       # Total ticks spent in databus transfers (Tick)
system.mem_ctrls.dram.totMemAccLat         1698420824                       # Total ticks spent from burst creation until serviced by the DRAM (Tick)
system.mem_ctrls.dram.avgQLat                14619.76                       # Average queueing delay per DRAM burst ((Tick/Count))
system.mem_ctrls.dram.avgBusLat               5000.00                       # Average bus latency per DRAM burst ((Tick/Count))
system.mem_ctrls.dram.avgMemAccLat           33369.76                       # Average memory access latency per DRAM burst ((Tick/Count))
system.mem_ctrls.dram.readRowHits               32854                       # Number of row buffer hits during reads (Count)
system.mem_ctrls.dram.writeRowHits                  0                       # Number of row buffer hits during writes (Count)
system.mem_ctrls.dram.readRowHitRate            64.55                       # Row buffer hit rate for reads (Ratio)
system.mem_ctrls.dram.writeRowHitRate             nan                       # Row buffer hit rate for writes (Ratio)
system.mem_ctrls.dram.bytesPerActivate::samples        18038                       # Bytes accessed per row activation (Byte)
system.mem_ctrls.dram.bytesPerActivate::mean   180.504269                       # Bytes accessed per row activation (Byte)
system.mem_ctrls.dram.bytesPerActivate::gmean    96.478866                       # Bytes accessed per row activation (Byte)
system.mem_ctrls.dram.bytesPerActivate::stdev   290.543821                       # Bytes accessed per row activation (Byte)
system.mem_ctrls.dram.bytesPerActivate::0-127        14053     77.91%     77.91% # Bytes accessed per row activation (Byte)
system.mem_ctrls.dram.bytesPerActivate::128-255         1504      8.34%     86.25% # Bytes accessed per row activation (Byte)
system.mem_ctrls.dram.bytesPerActivate::256-383          151      0.84%     87.08% # Bytes accessed per row activation (Byte)
system.mem_ctrls.dram.bytesPerActivate::384-511          148      0.82%     87.90% # Bytes accessed per row activation (Byte)
system.mem_ctrls.dram.bytesPerActivate::512-639          197      1.09%     89.00% # Bytes accessed per row activation (Byte)
system.mem_ctrls.dram.bytesPerActivate::640-767           72      0.40%     89.39% # Bytes accessed per row activation (Byte)
system.mem_ctrls.dram.bytesPerActivate::768-895          219      1.21%     90.61% # Bytes accessed per row activation (Byte)
system.mem_ctrls.dram.bytesPerActivate::896-1023           56      0.31%     90.92% # Bytes accessed per row activation (Byte)
system.mem_ctrls.dram.bytesPerActivate::1024-1151         1638      9.08%    100.00% # Bytes accessed per row activation (Byte)
system.mem_ctrls.dram.bytesPerActivate::total        18038                       # Bytes accessed per row activation (Byte)
system.mem_ctrls.dram.bytesRead               3257408                       # Total bytes read (Byte)
system.mem_ctrls.dram.bytesWritten                  0                       # Total bytes written (Byte)
system.mem_ctrls.dram.avgRdBW              405.286638                       # Average DRAM read bandwidth in MiBytes/s ((Byte/Second))
system.mem_ctrls.dram.avgWrBW                       0                       # Average DRAM write bandwidth in MiBytes/s ((Byte/Second))
system.mem_ctrls.dram.peakBW                 12800.00                       # Theoretical peak bandwidth in MiByte/s ((Byte/Second))
system.mem_ctrls.dram.busUtil                    3.17                       # Data bus utilization in percentage (Ratio)
system.mem_ctrls.dram.busUtilRead                3.17                       # Data bus utilization in percentage for reads (Ratio)
system.mem_ctrls.dram.busUtilWrite               0.00                       # Data bus utilization in percentage for writes (Ratio)
system.mem_ctrls.dram.pageHitRate               64.55                       # Row buffer hit rate, read and write combined (Ratio)
system.mem_ctrls.dram.power_state.pwrStateResidencyTicks::UNDEFINED   8037294327                       # Cumulative time (in ticks) in various power states (Tick)
system.mem_ctrls.dram.rank0.actEnergy        65352420                       # Energy for activate commands per rank (pJ) (Joule)
system.mem_ctrls.dram.rank0.preEnergy        34731840                       # Energy for precharge commands per rank (pJ) (Joule)
system.mem_ctrls.dram.rank0.readEnergy      184340520                       # Energy for read commands per rank (pJ) (Joule)
system.mem_ctrls.dram.rank0.writeEnergy             0                       # Energy for write commands per rank (pJ) (Joule)
system.mem_ctrls.dram.rank0.refreshEnergy 634308480.000000                       # Energy for refresh commands per rank (pJ) (Joule)
system.mem_ctrls.dram.rank0.actBackEnergy   1483413030                       # Energy for active background per rank (pJ) (Joule)
system.mem_ctrls.dram.rank0.preBackEnergy   1837131360                       # Energy for precharge background per rank (pJ) (Joule)
system.mem_ctrls.dram.rank0.actPowerDownEnergy            0                       # Energy for active power-down per rank (pJ) (Joule)
system.mem_ctrls.dram.rank0.prePowerDownEnergy            0                       # Energy for precharge power-down per rank (pJ) (Joule)
system.mem_ctrls.dram.rank0.selfRefreshEnergy            0                       # Energy for self refresh per rank (pJ) (Joule)
system.mem_ctrls.dram.rank0.totalEnergy    4239277650                       # Total energy per rank (pJ) (Joule)
system.mem_ctrls.dram.rank0.averagePower   527.450841                       # Core power per rank (mW) (Watt)
system.mem_ctrls.dram.rank0.totalIdleTime            0                       # Total Idle time Per DRAM Rank (Tick)
system.mem_ctrls.dram.rank0.pwrStateTime::IDLE   4754566981                       # Time in different power states (Tick)
system.mem_ctrls.dram.rank0.pwrStateTime::REF    268320000                       # Time in different power states (Tick)
system.mem_ctrls.dram.rank0.pwrStateTime::SREF            0                       # Time in different power states (Tick)
system.mem_ctrls.dram.rank0.pwrStateTime::PRE_PDN            0                       # Time in different power states (Tick)
system.mem_ctrls.dram.rank0.pwrStateTime::ACT   3014407346                       # Time in different power states (Tick)
system.mem_ctrls.dram.rank0.pwrStateTime::ACT_PDN            0                       # Time in different power states (Tick)
system.mem_ctrls.dram.rank1.actEnergy        63474600                       # Energy for activate commands per rank (pJ) (Joule)
system.mem_ctrls.dram.rank1.preEnergy        33722370                       # Energy for precharge commands per rank (pJ) (Joule)
system.mem_ctrls.dram.rank1.readEnergy      179064060                       # Energy for read commands per rank (pJ) (Joule)
system.mem_ctrls.dram.rank1.writeEnergy             0                       # Energy for write commands per rank (pJ) (Joule)
system.mem_ctrls.dram.rank1.refreshEnergy 634308480.000000                       # Energy for refresh commands per rank (pJ) (Joule)
system.mem_ctrls.dram.rank1.actBackEnergy   1461521610                       # Energy for active background per rank (pJ) (Joule)
system.mem_ctrls.dram.rank1.preBackEnergy   1855566240                       # Energy for precharge background per rank (pJ) (Joule)
system.mem_ctrls.dram.rank1.actPowerDownEnergy            0                       # Energy for active power-down per rank (pJ) (Joule)
system.mem_ctrls.dram.rank1.prePowerDownEnergy            0                       # Energy for precharge power-down per rank (pJ) (Joule)
system.mem_ctrls.dram.rank1.selfRefreshEnergy            0                       # Energy for self refresh per rank (pJ) (Joule)
system.mem_ctrls.dram.rank1.totalEnergy    4227657360                       # Total energy per rank (pJ) (Joule)
system.mem_ctrls.dram.rank1.averagePower   526.005044                       # Core power per rank (mW) (Watt)
system.mem_ctrls.dram.rank1.totalIdleTime            0                       # Total Idle time Per DRAM Rank (Tick)
system.mem_ctrls.dram.rank1.pwrStateTime::IDLE   4802766405                       # Time in different power states (Tick)
system.mem_ctrls.dram.rank1.pwrStateTime::REF    268320000                       # Time in different power states (Tick)
system.mem_ctrls.dram.rank1.pwrStateTime::SREF            0                       # Time in different power states (Tick)
system.mem_ctrls.dram.rank1.pwrStateTime::PRE_PDN            0                       # Time in different power states (Tick)
system.mem_ctrls.dram.rank1.pwrStateTime::ACT   2966207922                       # Time in different power states (Tick)
system.mem_ctrls.dram.rank1.pwrStateTime::ACT_PDN            0                       # Time in different power states (Tick)
system.mem_ctrls.power_state.pwrStateResidencyTicks::UNDEFINED   8037294327                       # Cumulative time (in ticks) in various power states (Tick)
system.membus.transDist::ReadResp                 943                       # Transaction distribution (Count)
system.membus.transDist::UpgradeReq               152                       # Transaction distribution (Count)
system.membus.transDist::SCUpgradeReq              11                       # Transaction distribution (Count)
system.membus.transDist::ReadExReq              49970                       # Transaction distribution (Count)
system.membus.transDist::ReadExResp             49954                       # Transaction distribution (Count)
system.membus.transDist::ReadSharedReq            943                       # Transaction distribution (Count)
system.membus.transDist::InvalidateReq              3                       # Transaction distribution (Count)
system.membus.pktCount_system.l3.mem_side_port::system.mem_ctrls.port       101976                       # Packet count per connected requestor and responder (Count)
system.membus.pktCount::total                  101976                       # Packet count per connected requestor and responder (Count)
system.membus.pktSize_system.l3.mem_side_port::system.mem_ctrls.port      3257408                       # Cumulative packet size per connected requestor and responder (Byte)
system.membus.pktSize::total                  3257408                       # Cumulative packet size per connected requestor and responder (Byte)
system.membus.snoops                              179                       # Total snoops (Count)
system.membus.snoopTraffic                          0                       # Total snoop traffic (Byte)
system.membus.snoopFanout::samples              51079                       # Request fanout histogram (Count)
system.membus.snoopFanout::mean                     0                       # Request fanout histogram (Count)
system.membus.snoopFanout::stdev                    0                       # Request fanout histogram (Count)
system.membus.snoopFanout::underflows               0      0.00%      0.00% # Request fanout histogram (Count)
system.membus.snoopFanout::0                    51079    100.00%    100.00% # Request fanout histogram (Count)
system.membus.snoopFanout::1                        0      0.00%    100.00% # Request fanout histogram (Count)
system.membus.snoopFanout::overflows                0      0.00%    100.00% # Request fanout histogram (Count)
system.membus.snoopFanout::min_value                0                       # Request fanout histogram (Count)
system.membus.snoopFanout::max_value                0                       # Request fanout histogram (Count)
system.membus.snoopFanout::total                51079                       # Request fanout histogram (Count)
system.membus.power_state.pwrStateResidencyTicks::UNDEFINED   8037294327                       # Cumulative time (in ticks) in various power states (Tick)
system.membus.reqLayer0.occupancy            76828231                       # Layer occupancy (ticks) (Tick)
system.membus.reqLayer0.utilization               0.0                       # Layer utilization (Ratio)
system.membus.respLayer1.occupancy          273243278                       # Layer occupancy (ticks) (Tick)
system.membus.respLayer1.utilization              0.0                       # Layer utilization (Ratio)
system.membus.snoop_filter.totRequests          51079                       # Total number of requests made to the snoop filter. (Count)
system.membus.snoop_filter.hitSingleRequests          179                       # Number of requests hitting in the snoop filter with a single holder of the requested data. (Count)
system.membus.snoop_filter.hitMultiRequests            0                       # Number of requests hitting in the snoop filter with multiple (>1) holders of the requested data. (Count)
system.membus.snoop_filter.totSnoops                0                       # Total number of snoops made to the snoop filter. (Count)
system.membus.snoop_filter.hitSingleSnoops            0                       # Number of snoops hitting in the snoop filter with a single holder of the requested data. (Count)
system.membus.snoop_filter.hitMultiSnoops            0                       # Number of snoops hitting in the snoop filter with multiple (>1) holders of the requested data. (Count)
system.tol3bus.transDist::ReadResp              41158                       # Transaction distribution (Count)
system.tol3bus.transDist::WritebackDirty        23082                       # Transaction distribution (Count)
system.tol3bus.transDist::CleanEvict             3645                       # Transaction distribution (Count)
system.tol3bus.transDist::UpgradeReq            10168                       # Transaction distribution (Count)
system.tol3bus.transDist::SCUpgradeReq             13                       # Transaction distribution (Count)
system.tol3bus.transDist::UpgradeResp           10181                       # Transaction distribution (Count)
system.tol3bus.transDist::ReadExReq             58896                       # Transaction distribution (Count)
system.tol3bus.transDist::ReadExResp            58896                       # Transaction distribution (Count)
system.tol3bus.transDist::ReadSharedReq         41158                       # Transaction distribution (Count)
system.tol3bus.transDist::InvalidateReq             4                       # Transaction distribution (Count)
system.tol3bus.transDist::InvalidateResp            4                       # Transaction distribution (Count)
system.tol3bus.pktCount_system.cpu0.l2cache.mem_side_port::system.l3.cpu_side_port       144415                       # Packet count per connected requestor and responder (Count)
system.tol3bus.pktCount_system.cpu1.l2cache.mem_side_port::system.l3.cpu_side_port        71261                       # Packet count per connected requestor and responder (Count)
system.tol3bus.pktCount::total                 215676                       # Packet count per connected requestor and responder (Count)
system.tol3bus.pktSize_system.cpu0.l2cache.mem_side_port::system.l3.cpu_side_port      4730240                       # Cumulative packet size per connected requestor and responder (Byte)
system.tol3bus.pktSize_system.cpu1.l2cache.mem_side_port::system.l3.cpu_side_port      1143040                       # Cumulative packet size per connected requestor and responder (Byte)
system.tol3bus.pktSize::total                 5873280                       # Cumulative packet size per connected requestor and responder (Byte)
system.tol3bus.snoops                           31529                       # Total snoops (Count)
system.tol3bus.snoopTraffic                   2007424                       # Total snoop traffic (Byte)
system.tol3bus.snoopFanout::samples            110239                       # Request fanout histogram (Count)
system.tol3bus.snoopFanout::mean             0.373860                       # Request fanout histogram (Count)
system.tol3bus.snoopFanout::stdev            0.483829                       # Request fanout histogram (Count)
system.tol3bus.snoopFanout::underflows              0      0.00%      0.00% # Request fanout histogram (Count)
system.tol3bus.snoopFanout::0                   69025     62.61%     62.61% # Request fanout histogram (Count)
system.tol3bus.snoopFanout::1                   41214     37.39%    100.00% # Request fanout histogram (Count)
system.tol3bus.snoopFanout::2                       0      0.00%    100.00% # Request fanout histogram (Count)
system.tol3bus.snoopFanout::overflows               0      0.00%    100.00% # Request fanout histogram (Count)
system.tol3bus.snoopFanout::min_value               0                       # Request fanout histogram (Count)
system.tol3bus.snoopFanout::max_value               1                       # Request fanout histogram (Count)
system.tol3bus.snoopFanout::total              110239                       # Request fanout histogram (Count)
system.tol3bus.power_state.pwrStateResidencyTicks::UNDEFINED   8037294327                       # Cumulative time (in ticks) in various power states (Tick)
system.tol3bus.reqLayer0.occupancy           60982290                       # Layer occupancy (ticks) (Tick)
system.tol3bus.reqLayer0.utilization              0.0                       # Layer utilization (Ratio)
system.tol3bus.respLayer0.occupancy          63048139                       # Layer occupancy (ticks) (Tick)
system.tol3bus.respLayer0.utilization             0.0                       # Layer utilization (Ratio)
system.tol3bus.respLayer1.occupancy          40340904                       # Layer occupancy (ticks) (Tick)
system.tol3bus.respLayer1.utilization             0.0                       # Layer utilization (Ratio)
system.tol3bus.snoop_filter.totRequests        136966                       # Total number of requests made to the snoop filter. (Count)
system.tol3bus.snoop_filter.hitSingleRequests        53328                       # Number of requests hitting in the snoop filter with a single holder of the requested data. (Count)
system.tol3bus.snoop_filter.hitMultiRequests        16732                       # Number of requests hitting in the snoop filter with multiple (>1) holders of the requested data. (Count)
system.tol3bus.snoop_filter.totSnoops               0                       # Total number of snoops made to the snoop filter. (Count)
system.tol3bus.snoop_filter.hitSingleSnoops            0                       # Number of snoops hitting in the snoop filter with a single holder of the requested data. (Count)
system.tol3bus.snoop_filter.hitMultiSnoops            0                       # Number of snoops hitting in the snoop filter with multiple (>1) holders of the requested data. (Count)
system.voltage_domain.voltage                       1                       # Voltage in Volts (Volt)
system.workload.inst.arm                            0                       # number of arm instructions executed (Count)
system.workload.inst.quiesce                        0                       # number of quiesce instructions executed (Count)

---------- End Simulation Statistics   ----------
