
---------- Begin Simulation Statistics ----------
simSeconds                                   0.130504                       # Number of seconds simulated (Second)
simTicks                                 130504028004                       # Number of ticks simulated (Tick)
finalTick                                130504028004                       # Number of ticks from beginning of simulation (restored from checkpoints and never reset) (Tick)
simFreq                                  1000000000000                       # The number of ticks per simulated second ((Tick/Second))
hostSeconds                                   1159.07                       # Real time elapsed on the host (Second)
hostTickRate                                112593876                       # The number of ticks simulated per host second (ticks/s) ((Tick/Second))
hostMemory                                     770832                       # Number of bytes of host memory used (Byte)
simInsts                                    254069238                       # Number of instructions simulated (Count)
simOps                                      437843695                       # Number of ops (including micro ops) simulated (Count)
hostInstRate                                   219201                       # Simulator instruction rate (inst/s) ((Count/Second))
hostOpRate                                     377755                       # Simulator op (including micro ops) rate (op/s) ((Count/Second))
system.clk_domain.clock                          1000                       # Clock period in ticks (Tick)
system.cpu.numCycles                        391903989                       # Number of cpu cycles simulated (Cycle)
system.cpu.numWorkItemsStarted                      0                       # Number of work items this cpu started (Count)
system.cpu.numWorkItemsCompleted                    0                       # Number of work items this cpu completed (Count)
system.cpu.instsAdded                       438822892                       # Number of instructions added to the IQ (excludes non-spec) (Count)
system.cpu.nonSpecInstsAdded                      402                       # Number of non-speculative instructions added to the IQ (Count)
system.cpu.instsIssued                      438542223                       # Number of instructions issued (Count)
system.cpu.squashedInstsIssued                   2910                       # Number of squashed instructions issued (Count)
system.cpu.squashedInstsExamined               979593                       # Number of squashed instructions iterated over during squash; mainly for profiling (Count)
system.cpu.squashedOperandsExamined           1183977                       # Number of squashed operands that are examined and possibly removed from graph (Count)
system.cpu.squashedNonSpecRemoved                 183                       # Number of squashed non-spec instructions that were removed (Count)
system.cpu.numIssuedDist::samples           391682213                       # Number of insts issued each cycle (Count)
system.cpu.numIssuedDist::mean               1.119638                       # Number of insts issued each cycle (Count)
system.cpu.numIssuedDist::stdev              1.449069                       # Number of insts issued each cycle (Count)
system.cpu.numIssuedDist::underflows                0      0.00%      0.00% # Number of insts issued each cycle (Count)
system.cpu.numIssuedDist::0                 190425687     48.62%     48.62% # Number of insts issued each cycle (Count)
system.cpu.numIssuedDist::1                  74295551     18.97%     67.59% # Number of insts issued each cycle (Count)
system.cpu.numIssuedDist::2                  69676102     17.79%     85.37% # Number of insts issued each cycle (Count)
system.cpu.numIssuedDist::3                  28737828      7.34%     92.71% # Number of insts issued each cycle (Count)
system.cpu.numIssuedDist::4                  13220605      3.38%     96.09% # Number of insts issued each cycle (Count)
system.cpu.numIssuedDist::5                   8643440      2.21%     98.29% # Number of insts issued each cycle (Count)
system.cpu.numIssuedDist::6                   4867440      1.24%     99.54% # Number of insts issued each cycle (Count)
system.cpu.numIssuedDist::7                   1147756      0.29%     99.83% # Number of insts issued each cycle (Count)
system.cpu.numIssuedDist::8                    667804      0.17%    100.00% # Number of insts issued each cycle (Count)
system.cpu.numIssuedDist::overflows                 0      0.00%    100.00% # Number of insts issued each cycle (Count)
system.cpu.numIssuedDist::min_value                 0                       # Number of insts issued each cycle (Count)
system.cpu.numIssuedDist::max_value                 8                       # Number of insts issued each cycle (Count)
system.cpu.numIssuedDist::total             391682213                       # Number of insts issued each cycle (Count)
system.cpu.statFuBusy::No_OpClass                   0      0.00%      0.00% # attempts to use FU when none available (Count)
system.cpu.statFuBusy::IntAlu                  746709     99.66%     99.66% # attempts to use FU when none available (Count)
system.cpu.statFuBusy::IntMult                      0      0.00%     99.66% # attempts to use FU when none available (Count)
system.cpu.statFuBusy::IntDiv                       0      0.00%     99.66% # attempts to use FU when none available (Count)
system.cpu.statFuBusy::FloatAdd                     0      0.00%     99.66% # attempts to use FU when none available (Count)
system.cpu.statFuBusy::FloatCmp                     0      0.00%     99.66% # attempts to use FU when none available (Count)
system.cpu.statFuBusy::FloatCvt                     0      0.00%     99.66% # attempts to use FU when none available (Count)
system.cpu.statFuBusy::FloatMult                    0      0.00%     99.66% # attempts to use FU when none available (Count)
system.cpu.statFuBusy::FloatMultAcc                 0      0.00%     99.66% # attempts to use FU when none available (Count)
system.cpu.statFuBusy::FloatDiv                     0      0.00%     99.66% # attempts to use FU when none available (Count)
system.cpu.statFuBusy::FloatMisc                    0      0.00%     99.66% # attempts to use FU when none available (Count)
system.cpu.statFuBusy::FloatSqrt                    0      0.00%     99.66% # attempts to use FU when none available (Count)
system.cpu.statFuBusy::SimdAdd                      0      0.00%     99.66% # attempts to use FU when none available (Count)
system.cpu.statFuBusy::SimdAddAcc                   0      0.00%     99.66% # attempts to use FU when none available (Count)
system.cpu.statFuBusy::SimdAlu                     29      0.00%     99.67% # attempts to use FU when none available (Count)
system.cpu.statFuBusy::SimdCmp                      0      0.00%     99.67% # attempts to use FU when none available (Count)
system.cpu.statFuBusy::SimdCvt                     59      0.01%     99.67% # attempts to use FU when none available (Count)
system.cpu.statFuBusy::SimdMisc                     3      0.00%     99.67% # attempts to use FU when none available (Count)
system.cpu.statFuBusy::SimdMult                     0      0.00%     99.67% # attempts to use FU when none available (Count)
system.cpu.statFuBusy::SimdMultAcc                  0      0.00%     99.67% # attempts to use FU when none available (Count)
system.cpu.statFuBusy::SimdShift                    8      0.00%     99.67% # attempts to use FU when none available (Count)
system.cpu.statFuBusy::SimdShiftAcc                 0      0.00%     99.67% # attempts to use FU when none available (Count)
system.cpu.statFuBusy::SimdDiv                      0      0.00%     99.67% # attempts to use FU when none available (Count)
system.cpu.statFuBusy::SimdSqrt                     0      0.00%     99.67% # attempts to use FU when none available (Count)
system.cpu.statFuBusy::SimdFloatAdd                 0      0.00%     99.67% # attempts to use FU when none available (Count)
system.cpu.statFuBusy::SimdFloatAlu                 0      0.00%     99.67% # attempts to use FU when none available (Count)
system.cpu.statFuBusy::SimdFloatCmp                 0      0.00%     99.67% # attempts to use FU when none available (Count)
system.cpu.statFuBusy::SimdFloatCvt                 0      0.00%     99.67% # attempts to use FU when none available (Count)
system.cpu.statFuBusy::SimdFloatDiv                 0      0.00%     99.67% # attempts to use FU when none available (Count)
system.cpu.statFuBusy::SimdFloatMisc                0      0.00%     99.67% # attempts to use FU when none available (Count)
system.cpu.statFuBusy::SimdFloatMult                0      0.00%     99.67% # attempts to use FU when none available (Count)
system.cpu.statFuBusy::SimdFloatMultAcc             0      0.00%     99.67% # attempts to use FU when none available (Count)
system.cpu.statFuBusy::SimdFloatSqrt                0      0.00%     99.67% # attempts to use FU when none available (Count)
system.cpu.statFuBusy::SimdReduceAdd                0      0.00%     99.67% # attempts to use FU when none available (Count)
system.cpu.statFuBusy::SimdReduceAlu                0      0.00%     99.67% # attempts to use FU when none available (Count)
system.cpu.statFuBusy::SimdReduceCmp                0      0.00%     99.67% # attempts to use FU when none available (Count)
system.cpu.statFuBusy::SimdFloatReduceAdd            0      0.00%     99.67% # attempts to use FU when none available (Count)
system.cpu.statFuBusy::SimdFloatReduceCmp            0      0.00%     99.67% # attempts to use FU when none available (Count)
system.cpu.statFuBusy::SimdAes                      0      0.00%     99.67% # attempts to use FU when none available (Count)
system.cpu.statFuBusy::SimdAesMix                   0      0.00%     99.67% # attempts to use FU when none available (Count)
system.cpu.statFuBusy::SimdSha1Hash                 0      0.00%     99.67% # attempts to use FU when none available (Count)
system.cpu.statFuBusy::SimdSha1Hash2                0      0.00%     99.67% # attempts to use FU when none available (Count)
system.cpu.statFuBusy::SimdSha256Hash               0      0.00%     99.67% # attempts to use FU when none available (Count)
system.cpu.statFuBusy::SimdSha256Hash2              0      0.00%     99.67% # attempts to use FU when none available (Count)
system.cpu.statFuBusy::SimdShaSigma2                0      0.00%     99.67% # attempts to use FU when none available (Count)
system.cpu.statFuBusy::SimdShaSigma3                0      0.00%     99.67% # attempts to use FU when none available (Count)
system.cpu.statFuBusy::SimdPredAlu                  0      0.00%     99.67% # attempts to use FU when none available (Count)
system.cpu.statFuBusy::MemRead                   1628      0.22%     99.89% # attempts to use FU when none available (Count)
system.cpu.statFuBusy::MemWrite                   647      0.09%     99.98% # attempts to use FU when none available (Count)
system.cpu.statFuBusy::FloatMemRead                93      0.01%     99.99% # attempts to use FU when none available (Count)
system.cpu.statFuBusy::FloatMemWrite               69      0.01%    100.00% # attempts to use FU when none available (Count)
system.cpu.statFuBusy::IprAccess                    0      0.00%    100.00% # attempts to use FU when none available (Count)
system.cpu.statFuBusy::InstPrefetch                 0      0.00%    100.00% # attempts to use FU when none available (Count)
system.cpu.statIssuedInstType_0::No_OpClass      4206361      0.96%      0.96% # Number of instructions issued per FU type, per thread (Count)
system.cpu.statIssuedInstType_0::IntAlu     178155348     40.62%     41.58% # Number of instructions issued per FU type, per thread (Count)
system.cpu.statIssuedInstType_0::IntMult          114      0.00%     41.58% # Number of instructions issued per FU type, per thread (Count)
system.cpu.statIssuedInstType_0::IntDiv          2309      0.00%     41.58% # Number of instructions issued per FU type, per thread (Count)
system.cpu.statIssuedInstType_0::FloatAdd     12596213      2.87%     44.46% # Number of instructions issued per FU type, per thread (Count)
system.cpu.statIssuedInstType_0::FloatCmp            0      0.00%     44.46% # Number of instructions issued per FU type, per thread (Count)
system.cpu.statIssuedInstType_0::FloatCvt           96      0.00%     44.46% # Number of instructions issued per FU type, per thread (Count)
system.cpu.statIssuedInstType_0::FloatMult            0      0.00%     44.46% # Number of instructions issued per FU type, per thread (Count)
system.cpu.statIssuedInstType_0::FloatMultAcc            0      0.00%     44.46% # Number of instructions issued per FU type, per thread (Count)
system.cpu.statIssuedInstType_0::FloatDiv            0      0.00%     44.46% # Number of instructions issued per FU type, per thread (Count)
system.cpu.statIssuedInstType_0::FloatMisc            0      0.00%     44.46% # Number of instructions issued per FU type, per thread (Count)
system.cpu.statIssuedInstType_0::FloatSqrt            0      0.00%     44.46% # Number of instructions issued per FU type, per thread (Count)
system.cpu.statIssuedInstType_0::SimdAdd          955      0.00%     44.46% # Number of instructions issued per FU type, per thread (Count)
system.cpu.statIssuedInstType_0::SimdAddAcc            0      0.00%     44.46% # Number of instructions issued per FU type, per thread (Count)
system.cpu.statIssuedInstType_0::SimdAlu     35676747      8.14%     52.59% # Number of instructions issued per FU type, per thread (Count)
system.cpu.statIssuedInstType_0::SimdCmp            0      0.00%     52.59% # Number of instructions issued per FU type, per thread (Count)
system.cpu.statIssuedInstType_0::SimdCvt         2692      0.00%     52.59% # Number of instructions issued per FU type, per thread (Count)
system.cpu.statIssuedInstType_0::SimdMisc     34613307      7.89%     60.49% # Number of instructions issued per FU type, per thread (Count)
system.cpu.statIssuedInstType_0::SimdMult            0      0.00%     60.49% # Number of instructions issued per FU type, per thread (Count)
system.cpu.statIssuedInstType_0::SimdMultAcc            0      0.00%     60.49% # Number of instructions issued per FU type, per thread (Count)
system.cpu.statIssuedInstType_0::SimdShift          922      0.00%     60.49% # Number of instructions issued per FU type, per thread (Count)
system.cpu.statIssuedInstType_0::SimdShiftAcc            0      0.00%     60.49% # Number of instructions issued per FU type, per thread (Count)
system.cpu.statIssuedInstType_0::SimdDiv            0      0.00%     60.49% # Number of instructions issued per FU type, per thread (Count)
system.cpu.statIssuedInstType_0::SimdSqrt            0      0.00%     60.49% # Number of instructions issued per FU type, per thread (Count)
system.cpu.statIssuedInstType_0::SimdFloatAdd     28317714      6.46%     66.94% # Number of instructions issued per FU type, per thread (Count)
system.cpu.statIssuedInstType_0::SimdFloatAlu            0      0.00%     66.94% # Number of instructions issued per FU type, per thread (Count)
system.cpu.statIssuedInstType_0::SimdFloatCmp            0      0.00%     66.94% # Number of instructions issued per FU type, per thread (Count)
system.cpu.statIssuedInstType_0::SimdFloatCvt     35661853      8.13%     75.07% # Number of instructions issued per FU type, per thread (Count)
system.cpu.statIssuedInstType_0::SimdFloatDiv            0      0.00%     75.07% # Number of instructions issued per FU type, per thread (Count)
system.cpu.statIssuedInstType_0::SimdFloatMisc            0      0.00%     75.07% # Number of instructions issued per FU type, per thread (Count)
system.cpu.statIssuedInstType_0::SimdFloatMult     56639513     12.92%     87.99% # Number of instructions issued per FU type, per thread (Count)
system.cpu.statIssuedInstType_0::SimdFloatMultAcc            0      0.00%     87.99% # Number of instructions issued per FU type, per thread (Count)
system.cpu.statIssuedInstType_0::SimdFloatSqrt            0      0.00%     87.99% # Number of instructions issued per FU type, per thread (Count)
system.cpu.statIssuedInstType_0::SimdReduceAdd            0      0.00%     87.99% # Number of instructions issued per FU type, per thread (Count)
system.cpu.statIssuedInstType_0::SimdReduceAlu            0      0.00%     87.99% # Number of instructions issued per FU type, per thread (Count)
system.cpu.statIssuedInstType_0::SimdReduceCmp            0      0.00%     87.99% # Number of instructions issued per FU type, per thread (Count)
system.cpu.statIssuedInstType_0::SimdFloatReduceAdd            0      0.00%     87.99% # Number of instructions issued per FU type, per thread (Count)
system.cpu.statIssuedInstType_0::SimdFloatReduceCmp            0      0.00%     87.99% # Number of instructions issued per FU type, per thread (Count)
system.cpu.statIssuedInstType_0::SimdAes            0      0.00%     87.99% # Number of instructions issued per FU type, per thread (Count)
system.cpu.statIssuedInstType_0::SimdAesMix            0      0.00%     87.99% # Number of instructions issued per FU type, per thread (Count)
system.cpu.statIssuedInstType_0::SimdSha1Hash            0      0.00%     87.99% # Number of instructions issued per FU type, per thread (Count)
system.cpu.statIssuedInstType_0::SimdSha1Hash2            0      0.00%     87.99% # Number of instructions issued per FU type, per thread (Count)
system.cpu.statIssuedInstType_0::SimdSha256Hash            0      0.00%     87.99% # Number of instructions issued per FU type, per thread (Count)
system.cpu.statIssuedInstType_0::SimdSha256Hash2            0      0.00%     87.99% # Number of instructions issued per FU type, per thread (Count)
system.cpu.statIssuedInstType_0::SimdShaSigma2            0      0.00%     87.99% # Number of instructions issued per FU type, per thread (Count)
system.cpu.statIssuedInstType_0::SimdShaSigma3            0      0.00%     87.99% # Number of instructions issued per FU type, per thread (Count)
system.cpu.statIssuedInstType_0::SimdPredAlu            0      0.00%     87.99% # Number of instructions issued per FU type, per thread (Count)
system.cpu.statIssuedInstType_0::MemRead     20073321      4.58%     92.57% # Number of instructions issued per FU type, per thread (Count)
system.cpu.statIssuedInstType_0::MemWrite     14747726      3.36%     95.93% # Number of instructions issued per FU type, per thread (Count)
system.cpu.statIssuedInstType_0::FloatMemRead     17844564      4.07%    100.00% # Number of instructions issued per FU type, per thread (Count)
system.cpu.statIssuedInstType_0::FloatMemWrite         2468      0.00%    100.00% # Number of instructions issued per FU type, per thread (Count)
system.cpu.statIssuedInstType_0::IprAccess            0      0.00%    100.00% # Number of instructions issued per FU type, per thread (Count)
system.cpu.statIssuedInstType_0::InstPrefetch            0      0.00%    100.00% # Number of instructions issued per FU type, per thread (Count)
system.cpu.statIssuedInstType_0::total      438542223                       # Number of instructions issued per FU type, per thread (Count)
system.cpu.issueRate                         1.119004                       # Inst issue rate ((Count/Cycle))
system.cpu.fuBusy                              749245                       # FU busy when requested (Count)
system.cpu.fuBusyRate                        0.001708                       # FU busy rate (busy events/executed inst) ((Count/Count))
system.cpu.intInstQueueReads                709296782                       # Number of integer instruction queue reads (Count)
system.cpu.intInstQueueWrites               159315848                       # Number of integer instruction queue writes (Count)
system.cpu.intInstQueueWakeupAccesses       158398093                       # Number of integer instruction queue wakeup accesses (Count)
system.cpu.fpInstQueueReads                 560222032                       # Number of floating instruction queue reads (Count)
system.cpu.fpInstQueueWrites                280487237                       # Number of floating instruction queue writes (Count)
system.cpu.fpInstQueueWakeupAccesses        280105343                       # Number of floating instruction queue wakeup accesses (Count)
system.cpu.vecInstQueueReads                        0                       # Number of vector instruction queue reads (Count)
system.cpu.vecInstQueueWrites                       0                       # Number of vector instruction queue writes (Count)
system.cpu.vecInstQueueWakeupAccesses               0                       # Number of vector instruction queue wakeup accesses (Count)
system.cpu.intAluAccesses                   154974027                       # Number of integer alu accesses (Count)
system.cpu.fpAluAccesses                    280111080                       # Number of floating point alu accesses (Count)
system.cpu.vecAluAccesses                           0                       # Number of vector alu accesses (Count)
system.cpu.numInsts                         438526271                       # Number of executed instructions (Count)
system.cpu.numLoadInsts                      37914076                       # Number of load instructions executed (Count)
system.cpu.numSquashedInsts                     15952                       # Number of squashed instructions skipped in execute (Count)
system.cpu.numSwp                                   0                       # Number of swp insts executed (Count)
system.cpu.numNop                                   0                       # Number of nop insts executed (Count)
system.cpu.numRefs                           52663565                       # Number of memory reference insts executed (Count)
system.cpu.numBranches                       15839545                       # Number of branches executed (Count)
system.cpu.numStoreInsts                     14749489                       # Number of stores executed (Count)
system.cpu.numRate                           1.118964                       # Inst execution rate ((Count/Cycle))
system.cpu.timesIdled                            1105                       # Number of times that the entire CPU went into an idle state and unscheduled itself (Count)
system.cpu.idleCycles                          221776                       # Total number of cycles that the CPU has spent unscheduled due to idling (Cycle)
system.cpu.committedInsts                   254069238                       # Number of Instructions Simulated (Count)
system.cpu.committedOps                     437843695                       # Number of Ops (including micro ops) Simulated (Count)
system.cpu.cpi                               1.542509                       # CPI: Cycles Per Instruction ((Cycle/Count))
system.cpu.totalCpi                          1.542509                       # CPI: Total CPI of All Threads ((Cycle/Count))
system.cpu.ipc                               0.648295                       # IPC: Instructions Per Cycle ((Count/Cycle))
system.cpu.totalIpc                          0.648295                       # IPC: Total IPC of All Threads ((Count/Cycle))
system.cpu.intRegfileReads                  246881523                       # Number of integer regfile reads (Count)
system.cpu.intRegfileWrites                 134022648                       # Number of integer regfile writes (Count)
system.cpu.fpRegfileReads                   549680989                       # Number of floating regfile reads (Count)
system.cpu.fpRegfileWrites                  262274027                       # Number of floating regfile writes (Count)
system.cpu.ccRegfileReads                    49849871                       # number of cc regfile reads (Count)
system.cpu.ccRegfileWrites                   67598868                       # number of cc regfile writes (Count)
system.cpu.miscRegfileReads                  98011353                       # number of misc regfile reads (Count)
system.cpu.miscRegfileWrites                       54                       # number of misc regfile writes (Count)
system.cpu.MemDepUnit__0.insertedLoads       37950069                       # Number of loads inserted to the mem dependence unit. (Count)
system.cpu.MemDepUnit__0.insertedStores      14778797                       # Number of stores inserted to the mem dependence unit. (Count)
system.cpu.MemDepUnit__0.conflictingLoads      9217500                       # Number of conflicting loads. (Count)
system.cpu.MemDepUnit__0.conflictingStores      8161949                       # Number of conflicting stores. (Count)
system.cpu.MemDepUnit__1.insertedLoads              0                       # Number of loads inserted to the mem dependence unit. (Count)
system.cpu.MemDepUnit__1.insertedStores             0                       # Number of stores inserted to the mem dependence unit. (Count)
system.cpu.MemDepUnit__1.conflictingLoads            0                       # Number of conflicting loads. (Count)
system.cpu.MemDepUnit__1.conflictingStores            0                       # Number of conflicting stores. (Count)
system.cpu.MemDepUnit__2.insertedLoads              0                       # Number of loads inserted to the mem dependence unit. (Count)
system.cpu.MemDepUnit__2.insertedStores             0                       # Number of stores inserted to the mem dependence unit. (Count)
system.cpu.MemDepUnit__2.conflictingLoads            0                       # Number of conflicting loads. (Count)
system.cpu.MemDepUnit__2.conflictingStores            0                       # Number of conflicting stores. (Count)
system.cpu.MemDepUnit__3.insertedLoads              0                       # Number of loads inserted to the mem dependence unit. (Count)
system.cpu.MemDepUnit__3.insertedStores             0                       # Number of stores inserted to the mem dependence unit. (Count)
system.cpu.MemDepUnit__3.conflictingLoads            0                       # Number of conflicting loads. (Count)
system.cpu.MemDepUnit__3.conflictingStores            0                       # Number of conflicting stores. (Count)
system.cpu.branchPred.lookups                15888625                       # Number of BP lookups (Count)
system.cpu.branchPred.condPredicted           7469599                       # Number of conditional branches predicted (Count)
system.cpu.branchPred.condIncorrect              6836                       # Number of conditional branches incorrect (Count)
system.cpu.branchPred.BTBLookups             11625673                       # Number of BTB lookups (Count)
system.cpu.branchPred.BTBHits                11622898                       # Number of BTB hits (Count)
system.cpu.branchPred.BTBHitRatio            0.999761                       # BTB Hit Ratio (Ratio)
system.cpu.branchPred.RASUsed                 4201096                       # Number of times the RAS was used to get a target. (Count)
system.cpu.branchPred.RASIncorrect                  5                       # Number of incorrect RAS predictions. (Count)
system.cpu.branchPred.indirectLookups            3565                       # Number of indirect predictor lookups. (Count)
system.cpu.branchPred.indirectHits                505                       # Number of indirect target hits. (Count)
system.cpu.branchPred.indirectMisses             3060                       # Number of indirect misses. (Count)
system.cpu.branchPred.indirectMispredicted          575                       # Number of mispredicted indirect branches. (Count)
system.cpu.commit.commitSquashedInsts          920988                       # The number of squashed insts skipped by commit (Count)
system.cpu.commit.commitNonSpecStalls             219                       # The number of times commit has been forced to stall to communicate backwards (Count)
system.cpu.commit.branchMispredicts              6859                       # The number of times a branch was mispredicted (Count)
system.cpu.commit.numCommittedDist::samples    391558461                       # Number of insts commited each cycle (Count)
system.cpu.commit.numCommittedDist::mean     1.118208                       # Number of insts commited each cycle (Count)
system.cpu.commit.numCommittedDist::stdev     1.846284                       # Number of insts commited each cycle (Count)
system.cpu.commit.numCommittedDist::underflows            0      0.00%      0.00% # Number of insts commited each cycle (Count)
system.cpu.commit.numCommittedDist::0       201009558     51.34%     51.34% # Number of insts commited each cycle (Count)
system.cpu.commit.numCommittedDist::1       109419114     27.94%     79.28% # Number of insts commited each cycle (Count)
system.cpu.commit.numCommittedDist::2        21513273      5.49%     84.77% # Number of insts commited each cycle (Count)
system.cpu.commit.numCommittedDist::3        26835166      6.85%     91.63% # Number of insts commited each cycle (Count)
system.cpu.commit.numCommittedDist::4         9804406      2.50%     94.13% # Number of insts commited each cycle (Count)
system.cpu.commit.numCommittedDist::5         4992355      1.27%     95.41% # Number of insts commited each cycle (Count)
system.cpu.commit.numCommittedDist::6         1051628      0.27%     95.68% # Number of insts commited each cycle (Count)
system.cpu.commit.numCommittedDist::7         1060318      0.27%     95.95% # Number of insts commited each cycle (Count)
system.cpu.commit.numCommittedDist::8        15872643      4.05%    100.00% # Number of insts commited each cycle (Count)
system.cpu.commit.numCommittedDist::overflows            0      0.00%    100.00% # Number of insts commited each cycle (Count)
system.cpu.commit.numCommittedDist::min_value            0                       # Number of insts commited each cycle (Count)
system.cpu.commit.numCommittedDist::max_value            8                       # Number of insts commited each cycle (Count)
system.cpu.commit.numCommittedDist::total    391558461                       # Number of insts commited each cycle (Count)
system.cpu.commit.instsCommitted            254069238                       # Number of instructions committed (Count)
system.cpu.commit.opsCommitted              437843695                       # Number of ops (including micro ops) committed (Count)
system.cpu.commit.memRefs                    52549727                       # Number of memory references committed (Count)
system.cpu.commit.loads                      37831133                       # Number of loads committed (Count)
system.cpu.commit.amos                              0                       # Number of atomic instructions committed (Count)
system.cpu.commit.membars                         110                       # Number of memory barriers committed (Count)
system.cpu.commit.branches                   15793906                       # Number of branches committed (Count)
system.cpu.commit.vectorInstructions                0                       # Number of committed Vector instructions. (Count)
system.cpu.commit.floating                  279981463                       # Number of committed floating point instructions. (Count)
system.cpu.commit.integer                   206098339                       # Number of committed integer instructions. (Count)
system.cpu.commit.functionCalls               4195813                       # Number of function calls committed. (Count)
system.cpu.commit.committedInstType_0::No_OpClass      4196740      0.96%      0.96% # Class of committed instruction (Count)
system.cpu.commit.committedInstType_0::IntAlu    177664494     40.58%     41.54% # Class of committed instruction (Count)
system.cpu.commit.committedInstType_0::IntMult           94      0.00%     41.54% # Class of committed instruction (Count)
system.cpu.commit.committedInstType_0::IntDiv         2069      0.00%     41.54% # Class of committed instruction (Count)
system.cpu.commit.committedInstType_0::FloatAdd     12583500      2.87%     44.41% # Class of committed instruction (Count)
system.cpu.commit.committedInstType_0::FloatCmp            0      0.00%     44.41% # Class of committed instruction (Count)
system.cpu.commit.committedInstType_0::FloatCvt           96      0.00%     44.41% # Class of committed instruction (Count)
system.cpu.commit.committedInstType_0::FloatMult            0      0.00%     44.41% # Class of committed instruction (Count)
system.cpu.commit.committedInstType_0::FloatMultAcc            0      0.00%     44.41% # Class of committed instruction (Count)
system.cpu.commit.committedInstType_0::FloatDiv            0      0.00%     44.41% # Class of committed instruction (Count)
system.cpu.commit.committedInstType_0::FloatMisc            0      0.00%     44.41% # Class of committed instruction (Count)
system.cpu.commit.committedInstType_0::FloatSqrt            0      0.00%     44.41% # Class of committed instruction (Count)
system.cpu.commit.committedInstType_0::SimdAdd          694      0.00%     44.41% # Class of committed instruction (Count)
system.cpu.commit.committedInstType_0::SimdAddAcc            0      0.00%     44.41% # Class of committed instruction (Count)
system.cpu.commit.committedInstType_0::SimdAlu     35653129      8.14%     52.55% # Class of committed instruction (Count)
system.cpu.commit.committedInstType_0::SimdCmp            0      0.00%     52.55% # Class of committed instruction (Count)
system.cpu.commit.committedInstType_0::SimdCvt         1748      0.00%     52.55% # Class of committed instruction (Count)
system.cpu.commit.committedInstType_0::SimdMisc     34604752      7.90%     60.46% # Class of committed instruction (Count)
system.cpu.commit.committedInstType_0::SimdMult            0      0.00%     60.46% # Class of committed instruction (Count)
system.cpu.commit.committedInstType_0::SimdMultAcc            0      0.00%     60.46% # Class of committed instruction (Count)
system.cpu.commit.committedInstType_0::SimdShift          340      0.00%     60.46% # Class of committed instruction (Count)
system.cpu.commit.committedInstType_0::SimdShiftAcc            0      0.00%     60.46% # Class of committed instruction (Count)
system.cpu.commit.committedInstType_0::SimdDiv            0      0.00%     60.46% # Class of committed instruction (Count)
system.cpu.commit.committedInstType_0::SimdSqrt            0      0.00%     60.46% # Class of committed instruction (Count)
system.cpu.commit.committedInstType_0::SimdFloatAdd     28311570      6.47%     66.92% # Class of committed instruction (Count)
system.cpu.commit.committedInstType_0::SimdFloatAlu            0      0.00%     66.92% # Class of committed instruction (Count)
system.cpu.commit.committedInstType_0::SimdFloatCmp            0      0.00%     66.92% # Class of committed instruction (Count)
system.cpu.commit.committedInstType_0::SimdFloatCvt     35651613      8.14%     75.07% # Class of committed instruction (Count)
system.cpu.commit.committedInstType_0::SimdFloatDiv            0      0.00%     75.07% # Class of committed instruction (Count)
system.cpu.commit.committedInstType_0::SimdFloatMisc            0      0.00%     75.07% # Class of committed instruction (Count)
system.cpu.commit.committedInstType_0::SimdFloatMult     56623129     12.93%     88.00% # Class of committed instruction (Count)
system.cpu.commit.committedInstType_0::SimdFloatMultAcc            0      0.00%     88.00% # Class of committed instruction (Count)
system.cpu.commit.committedInstType_0::SimdFloatSqrt            0      0.00%     88.00% # Class of committed instruction (Count)
system.cpu.commit.committedInstType_0::SimdReduceAdd            0      0.00%     88.00% # Class of committed instruction (Count)
system.cpu.commit.committedInstType_0::SimdReduceAlu            0      0.00%     88.00% # Class of committed instruction (Count)
system.cpu.commit.committedInstType_0::SimdReduceCmp            0      0.00%     88.00% # Class of committed instruction (Count)
system.cpu.commit.committedInstType_0::SimdFloatReduceAdd            0      0.00%     88.00% # Class of committed instruction (Count)
system.cpu.commit.committedInstType_0::SimdFloatReduceCmp            0      0.00%     88.00% # Class of committed instruction (Count)
system.cpu.commit.committedInstType_0::SimdAes            0      0.00%     88.00% # Class of committed instruction (Count)
system.cpu.commit.committedInstType_0::SimdAesMix            0      0.00%     88.00% # Class of committed instruction (Count)
system.cpu.commit.committedInstType_0::SimdSha1Hash            0      0.00%     88.00% # Class of committed instruction (Count)
system.cpu.commit.committedInstType_0::SimdSha1Hash2            0      0.00%     88.00% # Class of committed instruction (Count)
system.cpu.commit.committedInstType_0::SimdSha256Hash            0      0.00%     88.00% # Class of committed instruction (Count)
system.cpu.commit.committedInstType_0::SimdSha256Hash2            0      0.00%     88.00% # Class of committed instruction (Count)
system.cpu.commit.committedInstType_0::SimdShaSigma2            0      0.00%     88.00% # Class of committed instruction (Count)
system.cpu.commit.committedInstType_0::SimdShaSigma3            0      0.00%     88.00% # Class of committed instruction (Count)
system.cpu.commit.committedInstType_0::SimdPredAlu            0      0.00%     88.00% # Class of committed instruction (Count)
system.cpu.commit.committedInstType_0::MemRead     20003176      4.57%     92.57% # Class of committed instruction (Count)
system.cpu.commit.committedInstType_0::MemWrite     14716503      3.36%     95.93% # Class of committed instruction (Count)
system.cpu.commit.committedInstType_0::FloatMemRead     17827957      4.07%    100.00% # Class of committed instruction (Count)
system.cpu.commit.committedInstType_0::FloatMemWrite         2091      0.00%    100.00% # Class of committed instruction (Count)
system.cpu.commit.committedInstType_0::IprAccess            0      0.00%    100.00% # Class of committed instruction (Count)
system.cpu.commit.committedInstType_0::InstPrefetch            0      0.00%    100.00% # Class of committed instruction (Count)
system.cpu.commit.committedInstType_0::total    437843695                       # Class of committed instruction (Count)
system.cpu.commit.commitEligibleSamples      15872643                       # number cycles where commit BW limit reached (Cycle)
system.cpu.dcache.demandHits::cpu.data       40664453                       # number of demand (read+write) hits (Count)
system.cpu.dcache.demandHits::total          40664453                       # number of demand (read+write) hits (Count)
system.cpu.dcache.overallHits::cpu.data      40664453                       # number of overall hits (Count)
system.cpu.dcache.overallHits::total         40664453                       # number of overall hits (Count)
system.cpu.dcache.demandMisses::cpu.data      7215773                       # number of demand (read+write) misses (Count)
system.cpu.dcache.demandMisses::total         7215773                       # number of demand (read+write) misses (Count)
system.cpu.dcache.overallMisses::cpu.data      7215773                       # number of overall misses (Count)
system.cpu.dcache.overallMisses::total        7215773                       # number of overall misses (Count)
system.cpu.dcache.demandMissLatency::cpu.data 413903118559                       # number of demand (read+write) miss ticks (Tick)
system.cpu.dcache.demandMissLatency::total 413903118559                       # number of demand (read+write) miss ticks (Tick)
system.cpu.dcache.overallMissLatency::cpu.data 413903118559                       # number of overall miss ticks (Tick)
system.cpu.dcache.overallMissLatency::total 413903118559                       # number of overall miss ticks (Tick)
system.cpu.dcache.demandAccesses::cpu.data     47880226                       # number of demand (read+write) accesses (Count)
system.cpu.dcache.demandAccesses::total      47880226                       # number of demand (read+write) accesses (Count)
system.cpu.dcache.overallAccesses::cpu.data     47880226                       # number of overall (read+write) accesses (Count)
system.cpu.dcache.overallAccesses::total     47880226                       # number of overall (read+write) accesses (Count)
system.cpu.dcache.demandMissRate::cpu.data     0.150705                       # miss rate for demand accesses (Ratio)
system.cpu.dcache.demandMissRate::total      0.150705                       # miss rate for demand accesses (Ratio)
system.cpu.dcache.overallMissRate::cpu.data     0.150705                       # miss rate for overall accesses (Ratio)
system.cpu.dcache.overallMissRate::total     0.150705                       # miss rate for overall accesses (Ratio)
system.cpu.dcache.demandAvgMissLatency::cpu.data 57360.884074                       # average overall miss latency in ticks ((Tick/Count))
system.cpu.dcache.demandAvgMissLatency::total 57360.884074                       # average overall miss latency in ticks ((Tick/Count))
system.cpu.dcache.overallAvgMissLatency::cpu.data 57360.884074                       # average overall miss latency ((Tick/Count))
system.cpu.dcache.overallAvgMissLatency::total 57360.884074                       # average overall miss latency ((Tick/Count))
system.cpu.dcache.blockedCycles::no_mshrs        39495                       # number of cycles access was blocked (Cycle)
system.cpu.dcache.blockedCycles::no_targets            6                       # number of cycles access was blocked (Cycle)
system.cpu.dcache.blockedCauses::no_mshrs          604                       # number of times access was blocked (Count)
system.cpu.dcache.blockedCauses::no_targets            2                       # number of times access was blocked (Count)
system.cpu.dcache.avgBlocked::no_mshrs      65.389073                       # average number of cycles each access was blocked ((Cycle/Count))
system.cpu.dcache.avgBlocked::no_targets            3                       # average number of cycles each access was blocked ((Cycle/Count))
system.cpu.dcache.writebacks::writebacks      1933084                       # number of writebacks (Count)
system.cpu.dcache.writebacks::total           1933084                       # number of writebacks (Count)
system.cpu.dcache.demandMshrHits::cpu.data      4497175                       # number of demand (read+write) MSHR hits (Count)
system.cpu.dcache.demandMshrHits::total       4497175                       # number of demand (read+write) MSHR hits (Count)
system.cpu.dcache.overallMshrHits::cpu.data      4497175                       # number of overall MSHR hits (Count)
system.cpu.dcache.overallMshrHits::total      4497175                       # number of overall MSHR hits (Count)
system.cpu.dcache.demandMshrMisses::cpu.data      2718598                       # number of demand (read+write) MSHR misses (Count)
system.cpu.dcache.demandMshrMisses::total      2718598                       # number of demand (read+write) MSHR misses (Count)
system.cpu.dcache.overallMshrMisses::cpu.data      2718598                       # number of overall MSHR misses (Count)
system.cpu.dcache.overallMshrMisses::total      2718598                       # number of overall MSHR misses (Count)
system.cpu.dcache.demandMshrMissLatency::cpu.data 134993779753                       # number of demand (read+write) MSHR miss ticks (Tick)
system.cpu.dcache.demandMshrMissLatency::total 134993779753                       # number of demand (read+write) MSHR miss ticks (Tick)
system.cpu.dcache.overallMshrMissLatency::cpu.data 134993779753                       # number of overall MSHR miss ticks (Tick)
system.cpu.dcache.overallMshrMissLatency::total 134993779753                       # number of overall MSHR miss ticks (Tick)
system.cpu.dcache.demandMshrMissRate::cpu.data     0.056779                       # mshr miss ratio for demand accesses (Ratio)
system.cpu.dcache.demandMshrMissRate::total     0.056779                       # mshr miss ratio for demand accesses (Ratio)
system.cpu.dcache.overallMshrMissRate::cpu.data     0.056779                       # mshr miss ratio for overall accesses (Ratio)
system.cpu.dcache.overallMshrMissRate::total     0.056779                       # mshr miss ratio for overall accesses (Ratio)
system.cpu.dcache.demandAvgMshrMissLatency::cpu.data 49655.660658                       # average overall mshr miss latency ((Tick/Count))
system.cpu.dcache.demandAvgMshrMissLatency::total 49655.660658                       # average overall mshr miss latency ((Tick/Count))
system.cpu.dcache.overallAvgMshrMissLatency::cpu.data 49655.660658                       # average overall mshr miss latency ((Tick/Count))
system.cpu.dcache.overallAvgMshrMissLatency::total 49655.660658                       # average overall mshr miss latency ((Tick/Count))
system.cpu.dcache.replacements                2718082                       # number of replacements (Count)
system.cpu.dcache.LockedRMWReadReq.hits::cpu.data           55                       # number of LockedRMWReadReq hits (Count)
system.cpu.dcache.LockedRMWReadReq.hits::total           55                       # number of LockedRMWReadReq hits (Count)
system.cpu.dcache.LockedRMWReadReq.accesses::cpu.data           55                       # number of LockedRMWReadReq accesses(hits+misses) (Count)
system.cpu.dcache.LockedRMWReadReq.accesses::total           55                       # number of LockedRMWReadReq accesses(hits+misses) (Count)
system.cpu.dcache.LockedRMWReadReq.mshrMissLatency::cpu.data       146853                       # number of LockedRMWReadReq MSHR miss ticks (Tick)
system.cpu.dcache.LockedRMWReadReq.mshrMissLatency::total       146853                       # number of LockedRMWReadReq MSHR miss ticks (Tick)
system.cpu.dcache.LockedRMWReadReq.avgMshrMissLatency::cpu.data          inf                       # average LockedRMWReadReq mshr miss latency ((Tick/Count))
system.cpu.dcache.LockedRMWReadReq.avgMshrMissLatency::total          inf                       # average LockedRMWReadReq mshr miss latency ((Tick/Count))
system.cpu.dcache.LockedRMWWriteReq.hits::cpu.data           55                       # number of LockedRMWWriteReq hits (Count)
system.cpu.dcache.LockedRMWWriteReq.hits::total           55                       # number of LockedRMWWriteReq hits (Count)
system.cpu.dcache.LockedRMWWriteReq.accesses::cpu.data           55                       # number of LockedRMWWriteReq accesses(hits+misses) (Count)
system.cpu.dcache.LockedRMWWriteReq.accesses::total           55                       # number of LockedRMWWriteReq accesses(hits+misses) (Count)
system.cpu.dcache.ReadReq.hits::cpu.data     27752890                       # number of ReadReq hits (Count)
system.cpu.dcache.ReadReq.hits::total        27752890                       # number of ReadReq hits (Count)
system.cpu.dcache.ReadReq.misses::cpu.data      5408785                       # number of ReadReq misses (Count)
system.cpu.dcache.ReadReq.misses::total       5408785                       # number of ReadReq misses (Count)
system.cpu.dcache.ReadReq.missLatency::cpu.data 348028402221                       # number of ReadReq miss ticks (Tick)
system.cpu.dcache.ReadReq.missLatency::total 348028402221                       # number of ReadReq miss ticks (Tick)
system.cpu.dcache.ReadReq.accesses::cpu.data     33161675                       # number of ReadReq accesses(hits+misses) (Count)
system.cpu.dcache.ReadReq.accesses::total     33161675                       # number of ReadReq accesses(hits+misses) (Count)
system.cpu.dcache.ReadReq.missRate::cpu.data     0.163103                       # miss rate for ReadReq accesses (Ratio)
system.cpu.dcache.ReadReq.missRate::total     0.163103                       # miss rate for ReadReq accesses (Ratio)
system.cpu.dcache.ReadReq.avgMissLatency::cpu.data 64345.024293                       # average ReadReq miss latency ((Tick/Count))
system.cpu.dcache.ReadReq.avgMissLatency::total 64345.024293                       # average ReadReq miss latency ((Tick/Count))
system.cpu.dcache.ReadReq.mshrHits::cpu.data      4497166                       # number of ReadReq MSHR hits (Count)
system.cpu.dcache.ReadReq.mshrHits::total      4497166                       # number of ReadReq MSHR hits (Count)
system.cpu.dcache.ReadReq.mshrMisses::cpu.data       911619                       # number of ReadReq MSHR misses (Count)
system.cpu.dcache.ReadReq.mshrMisses::total       911619                       # number of ReadReq MSHR misses (Count)
system.cpu.dcache.ReadReq.mshrMissLatency::cpu.data  70322875398                       # number of ReadReq MSHR miss ticks (Tick)
system.cpu.dcache.ReadReq.mshrMissLatency::total  70322875398                       # number of ReadReq MSHR miss ticks (Tick)
system.cpu.dcache.ReadReq.mshrMissRate::cpu.data     0.027490                       # mshr miss rate for ReadReq accesses (Ratio)
system.cpu.dcache.ReadReq.mshrMissRate::total     0.027490                       # mshr miss rate for ReadReq accesses (Ratio)
system.cpu.dcache.ReadReq.avgMshrMissLatency::cpu.data 77140.642525                       # average ReadReq mshr miss latency ((Tick/Count))
system.cpu.dcache.ReadReq.avgMshrMissLatency::total 77140.642525                       # average ReadReq mshr miss latency ((Tick/Count))
system.cpu.dcache.WriteReq.hits::cpu.data     12911563                       # number of WriteReq hits (Count)
system.cpu.dcache.WriteReq.hits::total       12911563                       # number of WriteReq hits (Count)
system.cpu.dcache.WriteReq.misses::cpu.data      1806988                       # number of WriteReq misses (Count)
system.cpu.dcache.WriteReq.misses::total      1806988                       # number of WriteReq misses (Count)
system.cpu.dcache.WriteReq.missLatency::cpu.data  65874716338                       # number of WriteReq miss ticks (Tick)
system.cpu.dcache.WriteReq.missLatency::total  65874716338                       # number of WriteReq miss ticks (Tick)
system.cpu.dcache.WriteReq.accesses::cpu.data     14718551                       # number of WriteReq accesses(hits+misses) (Count)
system.cpu.dcache.WriteReq.accesses::total     14718551                       # number of WriteReq accesses(hits+misses) (Count)
system.cpu.dcache.WriteReq.missRate::cpu.data     0.122769                       # miss rate for WriteReq accesses (Ratio)
system.cpu.dcache.WriteReq.missRate::total     0.122769                       # miss rate for WriteReq accesses (Ratio)
system.cpu.dcache.WriteReq.avgMissLatency::cpu.data 36455.536140                       # average WriteReq miss latency ((Tick/Count))
system.cpu.dcache.WriteReq.avgMissLatency::total 36455.536140                       # average WriteReq miss latency ((Tick/Count))
system.cpu.dcache.WriteReq.mshrHits::cpu.data            9                       # number of WriteReq MSHR hits (Count)
system.cpu.dcache.WriteReq.mshrHits::total            9                       # number of WriteReq MSHR hits (Count)
system.cpu.dcache.WriteReq.mshrMisses::cpu.data      1806979                       # number of WriteReq MSHR misses (Count)
system.cpu.dcache.WriteReq.mshrMisses::total      1806979                       # number of WriteReq MSHR misses (Count)
system.cpu.dcache.WriteReq.mshrMissLatency::cpu.data  64670904355                       # number of WriteReq MSHR miss ticks (Tick)
system.cpu.dcache.WriteReq.mshrMissLatency::total  64670904355                       # number of WriteReq MSHR miss ticks (Tick)
system.cpu.dcache.WriteReq.mshrMissRate::cpu.data     0.122769                       # mshr miss rate for WriteReq accesses (Ratio)
system.cpu.dcache.WriteReq.mshrMissRate::total     0.122769                       # mshr miss rate for WriteReq accesses (Ratio)
system.cpu.dcache.WriteReq.avgMshrMissLatency::cpu.data 35789.516289                       # average WriteReq mshr miss latency ((Tick/Count))
system.cpu.dcache.WriteReq.avgMshrMissLatency::total 35789.516289                       # average WriteReq mshr miss latency ((Tick/Count))
system.cpu.dcache.power_state.pwrStateResidencyTicks::UNDEFINED 130504028004                       # Cumulative time (in ticks) in various power states (Tick)
system.cpu.dcache.tags.tagsInUse           511.881181                       # Average ticks per tags in use ((Tick/Count))
system.cpu.dcache.tags.totalRefs             43383161                       # Total number of references to valid blocks. (Count)
system.cpu.dcache.tags.sampledRefs            2718594                       # Sample count of references to valid blocks. (Count)
system.cpu.dcache.tags.avgRefs              15.957940                       # Average number of references to valid blocks. ((Count/Count))
system.cpu.dcache.tags.warmupTick              189144                       # The tick when the warmup percentage was hit. (Tick)
system.cpu.dcache.tags.occupancies::cpu.data   511.881181                       # Average occupied blocks per tick, per requestor ((Count/Tick))
system.cpu.dcache.tags.avgOccs::cpu.data     0.999768                       # Average percentage of cache occupancy ((Ratio/Tick))
system.cpu.dcache.tags.avgOccs::total        0.999768                       # Average percentage of cache occupancy ((Ratio/Tick))
system.cpu.dcache.tags.occupanciesTaskId::1024          512                       # Occupied blocks per task id (Count)
system.cpu.dcache.tags.ageTaskId_1024::0           75                       # Occupied blocks per task id, per block age (Count)
system.cpu.dcache.tags.ageTaskId_1024::1          430                       # Occupied blocks per task id, per block age (Count)
system.cpu.dcache.tags.ageTaskId_1024::3            1                       # Occupied blocks per task id, per block age (Count)
system.cpu.dcache.tags.ageTaskId_1024::4            6                       # Occupied blocks per task id, per block age (Count)
system.cpu.dcache.tags.ratioOccsTaskId::1024            1                       # Ratio of occupied blocks and all blocks, per task id (Ratio)
system.cpu.dcache.tags.tagAccesses          385761282                       # Number of tag accesses (Count)
system.cpu.dcache.tags.dataAccesses         385761282                       # Number of data accesses (Count)
system.cpu.dcache.tags.power_state.pwrStateResidencyTicks::UNDEFINED 130504028004                       # Cumulative time (in ticks) in various power states (Tick)
system.cpu.decode.idleCycles                 16578385                       # Number of cycles decode is idle (Cycle)
system.cpu.decode.blockedCycles             320067985                       # Number of cycles decode is blocked (Cycle)
system.cpu.decode.runCycles                   9282092                       # Number of cycles decode is running (Cycle)
system.cpu.decode.unblockCycles              45742368                       # Number of cycles decode is unblocking (Cycle)
system.cpu.decode.squashCycles                  11383                       # Number of cycles decode is squashing (Cycle)
system.cpu.decode.branchResolved             11613475                       # Number of times decode resolved a branch (Count)
system.cpu.decode.branchMispred                   839                       # Number of times decode detected a branch misprediction (Count)
system.cpu.decode.decodedInsts              438932323                       # Number of instructions handled by decode (Count)
system.cpu.decode.squashedInsts                  3978                       # Number of squashed instructions handled by decode (Count)
system.cpu.dtb_walker_cache.blockedCycles::no_mshrs            0                       # number of cycles access was blocked (Cycle)
system.cpu.dtb_walker_cache.blockedCycles::no_targets            0                       # number of cycles access was blocked (Cycle)
system.cpu.dtb_walker_cache.blockedCauses::no_mshrs            0                       # number of times access was blocked (Count)
system.cpu.dtb_walker_cache.blockedCauses::no_targets            0                       # number of times access was blocked (Count)
system.cpu.dtb_walker_cache.avgBlocked::no_mshrs          nan                       # average number of cycles each access was blocked ((Cycle/Count))
system.cpu.dtb_walker_cache.avgBlocked::no_targets          nan                       # average number of cycles each access was blocked ((Cycle/Count))
system.cpu.dtb_walker_cache.replacements            0                       # number of replacements (Count)
system.cpu.dtb_walker_cache.power_state.pwrStateResidencyTicks::UNDEFINED 130504028004                       # Cumulative time (in ticks) in various power states (Tick)
system.cpu.dtb_walker_cache.tags.tagsInUse            0                       # Average ticks per tags in use ((Tick/Count))
system.cpu.dtb_walker_cache.tags.totalRefs            0                       # Total number of references to valid blocks. (Count)
system.cpu.dtb_walker_cache.tags.sampledRefs            0                       # Sample count of references to valid blocks. (Count)
system.cpu.dtb_walker_cache.tags.avgRefs          nan                       # Average number of references to valid blocks. ((Count/Count))
system.cpu.dtb_walker_cache.tags.warmupTick            0                       # The tick when the warmup percentage was hit. (Tick)
system.cpu.dtb_walker_cache.tags.tagAccesses            0                       # Number of tag accesses (Count)
system.cpu.dtb_walker_cache.tags.dataAccesses            0                       # Number of data accesses (Count)
system.cpu.dtb_walker_cache.tags.power_state.pwrStateResidencyTicks::UNDEFINED 130504028004                       # Cumulative time (in ticks) in various power states (Tick)
system.cpu.fetch.icacheStallCycles           32734793                       # Number of cycles fetch is stalled on an Icache miss (Cycle)
system.cpu.fetch.insts                      254836831                       # Number of instructions fetch has processed (Count)
system.cpu.fetch.branches                    15888625                       # Number of branches that fetch encountered (Count)
system.cpu.fetch.predictedBranches           15824499                       # Number of branches that fetch has predicted taken (Count)
system.cpu.fetch.cycles                     358928406                       # Number of cycles fetch has run and was not squashing or blocked (Cycle)
system.cpu.fetch.squashCycles                   24406                       # Number of cycles fetch has spent squashing (Cycle)
system.cpu.fetch.miscStallCycles                  885                       # Number of cycles fetch has spent waiting on interrupts, or bad addresses, or out of MSHRs (Cycle)
system.cpu.fetch.pendingTrapStallCycles          5905                       # Number of stall cycles due to pending traps (Cycle)
system.cpu.fetch.icacheWaitRetryStallCycles           21                       # Number of stall cycles due to full MSHR (Cycle)
system.cpu.fetch.cacheLines                  32657609                       # Number of cache lines fetched (Count)
system.cpu.fetch.icacheSquashes                  2494                       # Number of outstanding Icache misses that were squashed (Count)
system.cpu.fetch.nisnDist::samples          391682213                       # Number of instructions fetched each cycle (Total) (Count)
system.cpu.fetch.nisnDist::mean              1.121209                       # Number of instructions fetched each cycle (Total) (Count)
system.cpu.fetch.nisnDist::stdev             2.509465                       # Number of instructions fetched each cycle (Total) (Count)
system.cpu.fetch.nisnDist::underflows               0      0.00%      0.00% # Number of instructions fetched each cycle (Total) (Count)
system.cpu.fetch.nisnDist::0                314646217     80.33%     80.33% # Number of instructions fetched each cycle (Total) (Count)
system.cpu.fetch.nisnDist::1                  5397463      1.38%     81.71% # Number of instructions fetched each cycle (Total) (Count)
system.cpu.fetch.nisnDist::2                  6046862      1.54%     83.25% # Number of instructions fetched each cycle (Total) (Count)
system.cpu.fetch.nisnDist::3                  7595453      1.94%     85.19% # Number of instructions fetched each cycle (Total) (Count)
system.cpu.fetch.nisnDist::4                  4916402      1.26%     86.45% # Number of instructions fetched each cycle (Total) (Count)
system.cpu.fetch.nisnDist::5                  8415695      2.15%     88.60% # Number of instructions fetched each cycle (Total) (Count)
system.cpu.fetch.nisnDist::6                  8063398      2.06%     90.66% # Number of instructions fetched each cycle (Total) (Count)
system.cpu.fetch.nisnDist::7                  4050366      1.03%     91.69% # Number of instructions fetched each cycle (Total) (Count)
system.cpu.fetch.nisnDist::8                 32550357      8.31%    100.00% # Number of instructions fetched each cycle (Total) (Count)
system.cpu.fetch.nisnDist::overflows                0      0.00%    100.00% # Number of instructions fetched each cycle (Total) (Count)
system.cpu.fetch.nisnDist::min_value                0                       # Number of instructions fetched each cycle (Total) (Count)
system.cpu.fetch.nisnDist::max_value                8                       # Number of instructions fetched each cycle (Total) (Count)
system.cpu.fetch.nisnDist::total            391682213                       # Number of instructions fetched each cycle (Total) (Count)
system.cpu.fetch.branchRate                  0.040542                       # Number of branch fetches per cycle (Ratio)
system.cpu.fetch.rate                        0.650253                       # Number of inst fetches per cycle ((Count/Cycle))
system.cpu.icache.demandHits::cpu.inst       32655316                       # number of demand (read+write) hits (Count)
system.cpu.icache.demandHits::total          32655316                       # number of demand (read+write) hits (Count)
system.cpu.icache.overallHits::cpu.inst      32655316                       # number of overall hits (Count)
system.cpu.icache.overallHits::total         32655316                       # number of overall hits (Count)
system.cpu.icache.demandMisses::cpu.inst         2293                       # number of demand (read+write) misses (Count)
system.cpu.icache.demandMisses::total            2293                       # number of demand (read+write) misses (Count)
system.cpu.icache.overallMisses::cpu.inst         2293                       # number of overall misses (Count)
system.cpu.icache.overallMisses::total           2293                       # number of overall misses (Count)
system.cpu.icache.demandMissLatency::cpu.inst    187812332                       # number of demand (read+write) miss ticks (Tick)
system.cpu.icache.demandMissLatency::total    187812332                       # number of demand (read+write) miss ticks (Tick)
system.cpu.icache.overallMissLatency::cpu.inst    187812332                       # number of overall miss ticks (Tick)
system.cpu.icache.overallMissLatency::total    187812332                       # number of overall miss ticks (Tick)
system.cpu.icache.demandAccesses::cpu.inst     32657609                       # number of demand (read+write) accesses (Count)
system.cpu.icache.demandAccesses::total      32657609                       # number of demand (read+write) accesses (Count)
system.cpu.icache.overallAccesses::cpu.inst     32657609                       # number of overall (read+write) accesses (Count)
system.cpu.icache.overallAccesses::total     32657609                       # number of overall (read+write) accesses (Count)
system.cpu.icache.demandMissRate::cpu.inst     0.000070                       # miss rate for demand accesses (Ratio)
system.cpu.icache.demandMissRate::total      0.000070                       # miss rate for demand accesses (Ratio)
system.cpu.icache.overallMissRate::cpu.inst     0.000070                       # miss rate for overall accesses (Ratio)
system.cpu.icache.overallMissRate::total     0.000070                       # miss rate for overall accesses (Ratio)
system.cpu.icache.demandAvgMissLatency::cpu.inst 81906.817270                       # average overall miss latency in ticks ((Tick/Count))
system.cpu.icache.demandAvgMissLatency::total 81906.817270                       # average overall miss latency in ticks ((Tick/Count))
system.cpu.icache.overallAvgMissLatency::cpu.inst 81906.817270                       # average overall miss latency ((Tick/Count))
system.cpu.icache.overallAvgMissLatency::total 81906.817270                       # average overall miss latency ((Tick/Count))
system.cpu.icache.blockedCycles::no_mshrs         1423                       # number of cycles access was blocked (Cycle)
system.cpu.icache.blockedCycles::no_targets            0                       # number of cycles access was blocked (Cycle)
system.cpu.icache.blockedCauses::no_mshrs           11                       # number of times access was blocked (Count)
system.cpu.icache.blockedCauses::no_targets            0                       # number of times access was blocked (Count)
system.cpu.icache.avgBlocked::no_mshrs     129.363636                       # average number of cycles each access was blocked ((Cycle/Count))
system.cpu.icache.avgBlocked::no_targets          nan                       # average number of cycles each access was blocked ((Cycle/Count))
system.cpu.icache.writebacks::writebacks         1185                       # number of writebacks (Count)
system.cpu.icache.writebacks::total              1185                       # number of writebacks (Count)
system.cpu.icache.demandMshrHits::cpu.inst          595                       # number of demand (read+write) MSHR hits (Count)
system.cpu.icache.demandMshrHits::total           595                       # number of demand (read+write) MSHR hits (Count)
system.cpu.icache.overallMshrHits::cpu.inst          595                       # number of overall MSHR hits (Count)
system.cpu.icache.overallMshrHits::total          595                       # number of overall MSHR hits (Count)
system.cpu.icache.demandMshrMisses::cpu.inst         1698                       # number of demand (read+write) MSHR misses (Count)
system.cpu.icache.demandMshrMisses::total         1698                       # number of demand (read+write) MSHR misses (Count)
system.cpu.icache.overallMshrMisses::cpu.inst         1698                       # number of overall MSHR misses (Count)
system.cpu.icache.overallMshrMisses::total         1698                       # number of overall MSHR misses (Count)
system.cpu.icache.demandMshrMissLatency::cpu.inst    143832023                       # number of demand (read+write) MSHR miss ticks (Tick)
system.cpu.icache.demandMshrMissLatency::total    143832023                       # number of demand (read+write) MSHR miss ticks (Tick)
system.cpu.icache.overallMshrMissLatency::cpu.inst    143832023                       # number of overall MSHR miss ticks (Tick)
system.cpu.icache.overallMshrMissLatency::total    143832023                       # number of overall MSHR miss ticks (Tick)
system.cpu.icache.demandMshrMissRate::cpu.inst     0.000052                       # mshr miss ratio for demand accesses (Ratio)
system.cpu.icache.demandMshrMissRate::total     0.000052                       # mshr miss ratio for demand accesses (Ratio)
system.cpu.icache.overallMshrMissRate::cpu.inst     0.000052                       # mshr miss ratio for overall accesses (Ratio)
system.cpu.icache.overallMshrMissRate::total     0.000052                       # mshr miss ratio for overall accesses (Ratio)
system.cpu.icache.demandAvgMshrMissLatency::cpu.inst 84706.727326                       # average overall mshr miss latency ((Tick/Count))
system.cpu.icache.demandAvgMshrMissLatency::total 84706.727326                       # average overall mshr miss latency ((Tick/Count))
system.cpu.icache.overallAvgMshrMissLatency::cpu.inst 84706.727326                       # average overall mshr miss latency ((Tick/Count))
system.cpu.icache.overallAvgMshrMissLatency::total 84706.727326                       # average overall mshr miss latency ((Tick/Count))
system.cpu.icache.replacements                   1185                       # number of replacements (Count)
system.cpu.icache.ReadReq.hits::cpu.inst     32655316                       # number of ReadReq hits (Count)
system.cpu.icache.ReadReq.hits::total        32655316                       # number of ReadReq hits (Count)
system.cpu.icache.ReadReq.misses::cpu.inst         2293                       # number of ReadReq misses (Count)
system.cpu.icache.ReadReq.misses::total          2293                       # number of ReadReq misses (Count)
system.cpu.icache.ReadReq.missLatency::cpu.inst    187812332                       # number of ReadReq miss ticks (Tick)
system.cpu.icache.ReadReq.missLatency::total    187812332                       # number of ReadReq miss ticks (Tick)
system.cpu.icache.ReadReq.accesses::cpu.inst     32657609                       # number of ReadReq accesses(hits+misses) (Count)
system.cpu.icache.ReadReq.accesses::total     32657609                       # number of ReadReq accesses(hits+misses) (Count)
system.cpu.icache.ReadReq.missRate::cpu.inst     0.000070                       # miss rate for ReadReq accesses (Ratio)
system.cpu.icache.ReadReq.missRate::total     0.000070                       # miss rate for ReadReq accesses (Ratio)
system.cpu.icache.ReadReq.avgMissLatency::cpu.inst 81906.817270                       # average ReadReq miss latency ((Tick/Count))
system.cpu.icache.ReadReq.avgMissLatency::total 81906.817270                       # average ReadReq miss latency ((Tick/Count))
system.cpu.icache.ReadReq.mshrHits::cpu.inst          595                       # number of ReadReq MSHR hits (Count)
system.cpu.icache.ReadReq.mshrHits::total          595                       # number of ReadReq MSHR hits (Count)
system.cpu.icache.ReadReq.mshrMisses::cpu.inst         1698                       # number of ReadReq MSHR misses (Count)
system.cpu.icache.ReadReq.mshrMisses::total         1698                       # number of ReadReq MSHR misses (Count)
system.cpu.icache.ReadReq.mshrMissLatency::cpu.inst    143832023                       # number of ReadReq MSHR miss ticks (Tick)
system.cpu.icache.ReadReq.mshrMissLatency::total    143832023                       # number of ReadReq MSHR miss ticks (Tick)
system.cpu.icache.ReadReq.mshrMissRate::cpu.inst     0.000052                       # mshr miss rate for ReadReq accesses (Ratio)
system.cpu.icache.ReadReq.mshrMissRate::total     0.000052                       # mshr miss rate for ReadReq accesses (Ratio)
system.cpu.icache.ReadReq.avgMshrMissLatency::cpu.inst 84706.727326                       # average ReadReq mshr miss latency ((Tick/Count))
system.cpu.icache.ReadReq.avgMshrMissLatency::total 84706.727326                       # average ReadReq mshr miss latency ((Tick/Count))
system.cpu.icache.power_state.pwrStateResidencyTicks::UNDEFINED 130504028004                       # Cumulative time (in ticks) in various power states (Tick)
system.cpu.icache.tags.tagsInUse           511.909636                       # Average ticks per tags in use ((Tick/Count))
system.cpu.icache.tags.totalRefs             32657013                       # Total number of references to valid blocks. (Count)
system.cpu.icache.tags.sampledRefs               1697                       # Sample count of references to valid blocks. (Count)
system.cpu.icache.tags.avgRefs           19243.967590                       # Average number of references to valid blocks. ((Count/Count))
system.cpu.icache.tags.warmupTick               92241                       # The tick when the warmup percentage was hit. (Tick)
system.cpu.icache.tags.occupancies::cpu.inst   511.909636                       # Average occupied blocks per tick, per requestor ((Count/Tick))
system.cpu.icache.tags.avgOccs::cpu.inst     0.999824                       # Average percentage of cache occupancy ((Ratio/Tick))
system.cpu.icache.tags.avgOccs::total        0.999824                       # Average percentage of cache occupancy ((Ratio/Tick))
system.cpu.icache.tags.occupanciesTaskId::1024          512                       # Occupied blocks per task id (Count)
system.cpu.icache.tags.ageTaskId_1024::0          115                       # Occupied blocks per task id, per block age (Count)
system.cpu.icache.tags.ageTaskId_1024::1          157                       # Occupied blocks per task id, per block age (Count)
system.cpu.icache.tags.ageTaskId_1024::4          240                       # Occupied blocks per task id, per block age (Count)
system.cpu.icache.tags.ratioOccsTaskId::1024            1                       # Ratio of occupied blocks and all blocks, per task id (Ratio)
system.cpu.icache.tags.tagAccesses          261262569                       # Number of tag accesses (Count)
system.cpu.icache.tags.dataAccesses         261262569                       # Number of data accesses (Count)
system.cpu.icache.tags.power_state.pwrStateResidencyTicks::UNDEFINED 130504028004                       # Cumulative time (in ticks) in various power states (Tick)
system.cpu.iew.idleCycles                           0                       # Number of cycles IEW is idle (Cycle)
system.cpu.iew.squashCycles                     11383                       # Number of cycles IEW is squashing (Cycle)
system.cpu.iew.blockCycles                   73868789                       # Number of cycles IEW is blocking (Cycle)
system.cpu.iew.unblockCycles                 40294864                       # Number of cycles IEW is unblocking (Cycle)
system.cpu.iew.dispatchedInsts              438823294                       # Number of instructions dispatched to IQ (Count)
system.cpu.iew.dispSquashedInsts                  630                       # Number of squashed instructions skipped by dispatch (Count)
system.cpu.iew.dispLoadInsts                 37950069                       # Number of dispatched load instructions (Count)
system.cpu.iew.dispStoreInsts                14778797                       # Number of dispatched store instructions (Count)
system.cpu.iew.dispNonSpecInsts                   173                       # Number of dispatched non-speculative instructions (Count)
system.cpu.iew.iqFullEvents                    183412                       # Number of times the IQ has become full, causing a stall (Count)
system.cpu.iew.lsqFullEvents                 39772377                       # Number of times the LSQ has become full, causing a stall (Count)
system.cpu.iew.memOrderViolationEvents            204                       # Number of memory order violations (Count)
system.cpu.iew.predictedTakenIncorrect           2344                       # Number of branches that were predicted taken incorrectly (Count)
system.cpu.iew.predictedNotTakenIncorrect         5829                       # Number of branches that were predicted not taken incorrectly (Count)
system.cpu.iew.branchMispredicts                 8173                       # Number of branch mispredicts detected at execute (Count)
system.cpu.iew.instsToCommit                438518093                       # Cumulative count of insts sent to commit (Count)
system.cpu.iew.writebackCount               438503436                       # Cumulative count of insts written-back (Count)
system.cpu.iew.producerInst                 329958471                       # Number of instructions producing a value (Count)
system.cpu.iew.consumerInst                 613045246                       # Number of instructions consuming a value (Count)
system.cpu.iew.wbRate                        1.118905                       # Insts written-back per cycle ((Count/Cycle))
system.cpu.iew.wbFanout                      0.538229                       # Average fanout of values written-back ((Count/Count))
system.cpu.interrupts.clk_domain.clock           5328                       # Clock period in ticks (Tick)
system.cpu.itb_walker_cache.blockedCycles::no_mshrs            0                       # number of cycles access was blocked (Cycle)
system.cpu.itb_walker_cache.blockedCycles::no_targets            0                       # number of cycles access was blocked (Cycle)
system.cpu.itb_walker_cache.blockedCauses::no_mshrs            0                       # number of times access was blocked (Count)
system.cpu.itb_walker_cache.blockedCauses::no_targets            0                       # number of times access was blocked (Count)
system.cpu.itb_walker_cache.avgBlocked::no_mshrs          nan                       # average number of cycles each access was blocked ((Cycle/Count))
system.cpu.itb_walker_cache.avgBlocked::no_targets          nan                       # average number of cycles each access was blocked ((Cycle/Count))
system.cpu.itb_walker_cache.replacements            0                       # number of replacements (Count)
system.cpu.itb_walker_cache.power_state.pwrStateResidencyTicks::UNDEFINED 130504028004                       # Cumulative time (in ticks) in various power states (Tick)
system.cpu.itb_walker_cache.tags.tagsInUse            0                       # Average ticks per tags in use ((Tick/Count))
system.cpu.itb_walker_cache.tags.totalRefs            0                       # Total number of references to valid blocks. (Count)
system.cpu.itb_walker_cache.tags.sampledRefs            0                       # Sample count of references to valid blocks. (Count)
system.cpu.itb_walker_cache.tags.avgRefs          nan                       # Average number of references to valid blocks. ((Count/Count))
system.cpu.itb_walker_cache.tags.warmupTick            0                       # The tick when the warmup percentage was hit. (Tick)
system.cpu.itb_walker_cache.tags.tagAccesses            0                       # Number of tag accesses (Count)
system.cpu.itb_walker_cache.tags.dataAccesses            0                       # Number of data accesses (Count)
system.cpu.itb_walker_cache.tags.power_state.pwrStateResidencyTicks::UNDEFINED 130504028004                       # Cumulative time (in ticks) in various power states (Tick)
system.cpu.l2cache.demandHits::cpu.inst            55                       # number of demand (read+write) hits (Count)
system.cpu.l2cache.demandHits::cpu.data       1404799                       # number of demand (read+write) hits (Count)
system.cpu.l2cache.demandHits::total          1404854                       # number of demand (read+write) hits (Count)
system.cpu.l2cache.overallHits::cpu.inst           55                       # number of overall hits (Count)
system.cpu.l2cache.overallHits::cpu.data      1404799                       # number of overall hits (Count)
system.cpu.l2cache.overallHits::total         1404854                       # number of overall hits (Count)
system.cpu.l2cache.demandMisses::cpu.inst         1642                       # number of demand (read+write) misses (Count)
system.cpu.l2cache.demandMisses::cpu.data      1313795                       # number of demand (read+write) misses (Count)
system.cpu.l2cache.demandMisses::total        1315437                       # number of demand (read+write) misses (Count)
system.cpu.l2cache.overallMisses::cpu.inst         1642                       # number of overall misses (Count)
[...]
system.mem_ctrls.dram.perBankRdBursts::15        79514                       # Per bank write bursts (Count)
system.mem_ctrls.dram.perBankWrBursts::0        29574                       # Per bank write bursts (Count)
system.mem_ctrls.dram.perBankWrBursts::1        29280                       # Per bank write bursts (Count)
system.mem_ctrls.dram.perBankWrBursts::2        29830                       # Per bank write bursts (Count)
system.mem_ctrls.dram.perBankWrBursts::3        29746                       # Per bank write bursts (Count)
system.mem_ctrls.dram.perBankWrBursts::4        30030                       # Per bank write bursts (Count)
system.mem_ctrls.dram.perBankWrBursts::5        29287                       # Per bank write bursts (Count)
system.mem_ctrls.dram.perBankWrBursts::6        29259                       # Per bank write bursts (Count)
system.mem_ctrls.dram.perBankWrBursts::7        29495                       # Per bank write bursts (Count)
system.mem_ctrls.dram.perBankWrBursts::8        29237                       # Per bank write bursts (Count)
system.mem_ctrls.dram.perBankWrBursts::9        28901                       # Per bank write bursts (Count)
system.mem_ctrls.dram.perBankWrBursts::10        28834                       # Per bank write bursts (Count)
system.mem_ctrls.dram.perBankWrBursts::11        29551                       # Per bank write bursts (Count)
system.mem_ctrls.dram.perBankWrBursts::12        29270                       # Per bank write bursts (Count)
system.mem_ctrls.dram.perBankWrBursts::13        29123                       # Per bank write bursts (Count)
system.mem_ctrls.dram.perBankWrBursts::14        29498                       # Per bank write bursts (Count)
system.mem_ctrls.dram.perBankWrBursts::15        29586                       # Per bank write bursts (Count)
system.mem_ctrls.dram.totQLat             22894163202                       # Total ticks spent queuing (Tick)
system.mem_ctrls.dram.totBusLat            6370790000                       # Total ticks spent in databus transfers (Tick)
system.mem_ctrls.dram.totMemAccLat        46784625702                       # Total ticks spent from burst creation until serviced by the DRAM (Tick)
system.mem_ctrls.dram.avgQLat                17968.07                       # Average queueing delay per DRAM burst ((Tick/Count))
system.mem_ctrls.dram.avgBusLat               5000.00                       # Average bus latency per DRAM burst ((Tick/Count))
system.mem_ctrls.dram.avgMemAccLat           36718.07                       # Average memory access latency per DRAM burst ((Tick/Count))
system.mem_ctrls.dram.readRowHits              795367                       # Number of row buffer hits during reads (Count)
system.mem_ctrls.dram.writeRowHits             304377                       # Number of row buffer hits during writes (Count)
system.mem_ctrls.dram.readRowHitRate            62.42                       # Row buffer hit rate for reads (Ratio)
system.mem_ctrls.dram.writeRowHitRate           64.69                       # Row buffer hit rate for writes (Ratio)
system.mem_ctrls.dram.bytesPerActivate::samples       644905                       # Bytes accessed per row activation (Byte)
system.mem_ctrls.dram.bytesPerActivate::mean   173.136372                       # Bytes accessed per row activation (Byte)
system.mem_ctrls.dram.bytesPerActivate::gmean   100.508045                       # Bytes accessed per row activation (Byte)
system.mem_ctrls.dram.bytesPerActivate::stdev   255.919907                       # Bytes accessed per row activation (Byte)
system.mem_ctrls.dram.bytesPerActivate::0-127       472479     73.26%     73.26% # Bytes accessed per row activation (Byte)
system.mem_ctrls.dram.bytesPerActivate::128-255        64579     10.01%     83.28% # Bytes accessed per row activation (Byte)
system.mem_ctrls.dram.bytesPerActivate::256-383        26108      4.05%     87.33% # Bytes accessed per row activation (Byte)
system.mem_ctrls.dram.bytesPerActivate::384-511        13583      2.11%     89.43% # Bytes accessed per row activation (Byte)
system.mem_ctrls.dram.bytesPerActivate::512-639         9995      1.55%     90.98% # Bytes accessed per row activation (Byte)
system.mem_ctrls.dram.bytesPerActivate::640-767        10268      1.59%     92.57% # Bytes accessed per row activation (Byte)
system.mem_ctrls.dram.bytesPerActivate::768-895         6753      1.05%     93.62% # Bytes accessed per row activation (Byte)
system.mem_ctrls.dram.bytesPerActivate::896-1023         5389      0.84%     94.46% # Bytes accessed per row activation (Byte)
system.mem_ctrls.dram.bytesPerActivate::1024-1151        35751      5.54%    100.00% # Bytes accessed per row activation (Byte)
system.mem_ctrls.dram.bytesPerActivate::total       644905                       # Bytes accessed per row activation (Byte)
system.mem_ctrls.dram.bytesRead              81546112                       # Total bytes read (Byte)
system.mem_ctrls.dram.bytesWritten           30112064                       # Total bytes written (Byte)
system.mem_ctrls.dram.avgRdBW              624.855135                       # Average DRAM read bandwidth in MiBytes/s ((Byte/Second))
system.mem_ctrls.dram.avgWrBW              230.736664                       # Average DRAM write bandwidth in MiBytes/s ((Byte/Second))
system.mem_ctrls.dram.peakBW                 12800.00                       # Theoretical peak bandwidth in MiByte/s ((Byte/Second))
system.mem_ctrls.dram.busUtil                    6.68                       # Data bus utilization in percentage (Ratio)
system.mem_ctrls.dram.busUtilRead                4.88                       # Data bus utilization in percentage for reads (Ratio)
system.mem_ctrls.dram.busUtilWrite               1.80                       # Data bus utilization in percentage for writes (Ratio)
system.mem_ctrls.dram.pageHitRate               63.03                       # Row buffer hit rate, read and write combined (Ratio)
system.mem_ctrls.dram.power_state.pwrStateResidencyTicks::UNDEFINED 130504028004                       # Cumulative time (in ticks) in various power states (Tick)
system.mem_ctrls.dram.rank0.actEnergy      2308383420                       # Energy for activate commands per rank (pJ) (Joule)
system.mem_ctrls.dram.rank0.preEnergy      1226915910                       # Energy for precharge commands per rank (pJ) (Joule)
system.mem_ctrls.dram.rank0.readEnergy     4554934440                       # Energy for read commands per rank (pJ) (Joule)
system.mem_ctrls.dram.rank0.writeEnergy    1234535220                       # Energy for write commands per rank (pJ) (Joule)
system.mem_ctrls.dram.rank0.refreshEnergy 10301366400.000002                       # Energy for refresh commands per rank (pJ) (Joule)
system.mem_ctrls.dram.rank0.actBackEnergy  44136857310                       # Energy for active background per rank (pJ) (Joule)
system.mem_ctrls.dram.rank0.preBackEnergy  12945667200                       # Energy for precharge background per rank (pJ) (Joule)
system.mem_ctrls.dram.rank0.actPowerDownEnergy            0                       # Energy for active power-down per rank (pJ) (Joule)
system.mem_ctrls.dram.rank0.prePowerDownEnergy            0                       # Energy for precharge power-down per rank (pJ) (Joule)
system.mem_ctrls.dram.rank0.selfRefreshEnergy            0                       # Energy for self refresh per rank (pJ) (Joule)
system.mem_ctrls.dram.rank0.totalEnergy   76708659900                       # Total energy per rank (pJ) (Joule)
system.mem_ctrls.dram.rank0.averagePower   587.787680                       # Core power per rank (mW) (Watt)
system.mem_ctrls.dram.rank0.totalIdleTime            0                       # Total Idle time Per DRAM Rank (Tick)
system.mem_ctrls.dram.rank0.pwrStateTime::IDLE  33117570552                       # Time in different power states (Tick)
system.mem_ctrls.dram.rank0.pwrStateTime::REF   4357600000                       # Time in different power states (Tick)
system.mem_ctrls.dram.rank0.pwrStateTime::SREF            0                       # Time in different power states (Tick)
system.mem_ctrls.dram.rank0.pwrStateTime::PRE_PDN            0                       # Time in different power states (Tick)
system.mem_ctrls.dram.rank0.pwrStateTime::ACT  93028857452                       # Time in different power states (Tick)
system.mem_ctrls.dram.rank0.pwrStateTime::ACT_PDN            0                       # Time in different power states (Tick)
system.mem_ctrls.dram.rank1.actEnergy      2296309680                       # Energy for activate commands per rank (pJ) (Joule)
system.mem_ctrls.dram.rank1.preEnergy      1220498565                       # Energy for precharge commands per rank (pJ) (Joule)
system.mem_ctrls.dram.rank1.readEnergy     4542553680                       # Energy for read commands per rank (pJ) (Joule)
system.mem_ctrls.dram.rank1.writeEnergy    1221480000                       # Energy for write commands per rank (pJ) (Joule)
system.mem_ctrls.dram.rank1.refreshEnergy 10301366400.000002                       # Energy for refresh commands per rank (pJ) (Joule)
system.mem_ctrls.dram.rank1.actBackEnergy  44121951240                       # Energy for active background per rank (pJ) (Joule)
system.mem_ctrls.dram.rank1.preBackEnergy  12958219680                       # Energy for precharge background per rank (pJ) (Joule)
system.mem_ctrls.dram.rank1.actPowerDownEnergy            0                       # Energy for active power-down per rank (pJ) (Joule)
system.mem_ctrls.dram.rank1.prePowerDownEnergy            0                       # Energy for precharge power-down per rank (pJ) (Joule)
system.mem_ctrls.dram.rank1.selfRefreshEnergy            0                       # Energy for self refresh per rank (pJ) (Joule)
system.mem_ctrls.dram.rank1.totalEnergy   76662379245                       # Total energy per rank (pJ) (Joule)
system.mem_ctrls.dram.rank1.averagePower   587.433050                       # Core power per rank (mW) (Watt)
system.mem_ctrls.dram.rank1.totalIdleTime            0                       # Total Idle time Per DRAM Rank (Tick)
system.mem_ctrls.dram.rank1.pwrStateTime::IDLE  33155529055                       # Time in different power states (Tick)
system.mem_ctrls.dram.rank1.pwrStateTime::REF   4357600000                       # Time in different power states (Tick)
system.mem_ctrls.dram.rank1.pwrStateTime::SREF            0                       # Time in different power states (Tick)
system.mem_ctrls.dram.rank1.pwrStateTime::PRE_PDN            0                       # Time in different power states (Tick)
system.mem_ctrls.dram.rank1.pwrStateTime::ACT  92990898949                       # Time in different power states (Tick)
system.mem_ctrls.dram.rank1.pwrStateTime::ACT_PDN            0                       # Time in different power states (Tick)
system.mem_ctrls.power_state.pwrStateResidencyTicks::UNDEFINED 130504028004                       # Cumulative time (in ticks) in various power states (Tick)
system.membus.transDist::ReadResp              745584                       # Transaction distribution (Count)
system.membus.transDist::WritebackDirty        470530                       # Transaction distribution (Count)
system.membus.transDist::CleanEvict            686749                       # Transaction distribution (Count)
system.membus.transDist::ReadExReq             528768                       # Transaction distribution (Count)
system.membus.transDist::ReadExResp            528768                       # Transaction distribution (Count)
system.membus.transDist::ReadSharedReq         745584                       # Transaction distribution (Count)
system.membus.pktCount_system.l3.mem_side_port::system.mem_ctrls.port      3705983                       # Packet count per connected requestor and responder (Count)
system.membus.pktCount_system.l3.mem_side_port::total      3705983                       # Packet count per connected requestor and responder (Count)
system.membus.pktCount::total                 3705983                       # Packet count per connected requestor and responder (Count)
system.membus.pktSize_system.l3.mem_side_port::system.mem_ctrls.port    111672448                       # Cumulative packet size per connected requestor and responder (Byte)
system.membus.pktSize_system.l3.mem_side_port::total    111672448                       # Cumulative packet size per connected requestor and responder (Byte)
system.membus.pktSize::total                111672448                       # Cumulative packet size per connected requestor and responder (Byte)
system.membus.snoops                                0                       # Total snoops (Count)
system.membus.snoopTraffic                          0                       # Total snoop traffic (Byte)
system.membus.snoopFanout::samples            1274352                       # Request fanout histogram (Count)
system.membus.snoopFanout::mean                     0                       # Request fanout histogram (Count)
system.membus.snoopFanout::stdev                    0                       # Request fanout histogram (Count)
system.membus.snoopFanout::underflows               0      0.00%      0.00% # Request fanout histogram (Count)
system.membus.snoopFanout::0                  1274352    100.00%    100.00% # Request fanout histogram (Count)
system.membus.snoopFanout::1                        0      0.00%    100.00% # Request fanout histogram (Count)
system.membus.snoopFanout::overflows                0      0.00%    100.00% # Request fanout histogram (Count)
system.membus.snoopFanout::min_value                0                       # Request fanout histogram (Count)
system.membus.snoopFanout::max_value                0                       # Request fanout histogram (Count)
system.membus.snoopFanout::total              1274352                       # Request fanout histogram (Count)
system.membus.power_state.pwrStateResidencyTicks::UNDEFINED 130504028004                       # Cumulative time (in ticks) in various power states (Tick)
system.membus.reqLayer2.occupancy          5208413933                       # Layer occupancy (ticks) (Tick)
system.membus.reqLayer2.utilization               0.0                       # Layer utilization (Ratio)
system.membus.respLayer1.occupancy         6880718560                       # Layer occupancy (ticks) (Tick)
system.membus.respLayer1.utilization              0.1                       # Layer utilization (Ratio)
system.membus.snoop_filter.totRequests        2431631                       # Total number of requests made to the snoop filter. (Count)
system.membus.snoop_filter.hitSingleRequests      1157280                       # Number of requests hitting in the snoop filter with a single holder of the requested data. (Count)
system.membus.snoop_filter.hitMultiRequests            0                       # Number of requests hitting in the snoop filter with multiple (>1) holders of the requested data. (Count)
system.membus.snoop_filter.totSnoops                0                       # Total number of snoops made to the snoop filter. (Count)
system.membus.snoop_filter.hitSingleSnoops            0                       # Number of snoops hitting in the snoop filter with a single holder of the requested data. (Count)
system.membus.snoop_filter.hitMultiSnoops            0                       # Number of snoops hitting in the snoop filter with multiple (>1) holders of the requested data. (Count)
system.tol3bus.transDist::ReadResp             786664                       # Transaction distribution (Count)
system.tol3bus.transDist::WritebackDirty      1024750                       # Transaction distribution (Count)
system.tol3bus.transDist::CleanEvict          1420158                       # Transaction distribution (Count)
system.tol3bus.transDist::ReadExReq            528772                       # Transaction distribution (Count)
system.tol3bus.transDist::ReadExResp           528772                       # Transaction distribution (Count)
system.tol3bus.transDist::ReadSharedReq        786664                       # Transaction distribution (Count)
system.tol3bus.pktCount_system.cpu.l2cache.mem_side_port::system.l3.cpu_side_port      3913292                       # Packet count per connected requestor and responder (Count)
system.tol3bus.pktSize_system.cpu.l2cache.mem_side_port::system.l3.cpu_side_port    119657984                       # Cumulative packet size per connected requestor and responder (Byte)
system.tol3bus.snoops                         1162488                       # Total snoops (Count)
system.tol3bus.snoopTraffic                  30113920                       # Total snoop traffic (Byte)
system.tol3bus.snoopFanout::samples           2477924                       # Request fanout histogram (Count)
system.tol3bus.snoopFanout::mean             0.002979                       # Request fanout histogram (Count)
system.tol3bus.snoopFanout::stdev            0.054496                       # Request fanout histogram (Count)
system.tol3bus.snoopFanout::underflows              0      0.00%      0.00% # Request fanout histogram (Count)
system.tol3bus.snoopFanout::0                 2470543     99.70%     99.70% # Request fanout histogram (Count)
system.tol3bus.snoopFanout::1                    7381      0.30%    100.00% # Request fanout histogram (Count)
system.tol3bus.snoopFanout::overflows               0      0.00%    100.00% # Request fanout histogram (Count)
system.tol3bus.snoopFanout::min_value               0                       # Request fanout histogram (Count)
system.tol3bus.snoopFanout::max_value               1                       # Request fanout histogram (Count)
system.tol3bus.snoopFanout::total             2477924                       # Request fanout histogram (Count)
system.tol3bus.power_state.pwrStateResidencyTicks::UNDEFINED 130504028004                       # Cumulative time (in ticks) in various power states (Tick)
system.tol3bus.reqLayer0.occupancy         1234196568                       # Layer occupancy (ticks) (Tick)
system.tol3bus.reqLayer0.utilization              0.0                       # Layer utilization (Ratio)
system.tol3bus.respLayer0.occupancy        1314120564                       # Layer occupancy (ticks) (Tick)
system.tol3bus.respLayer0.utilization             0.0                       # Layer utilization (Ratio)
system.tol3bus.snoop_filter.totRequests       2597856                       # Total number of requests made to the snoop filter. (Count)
system.tol3bus.snoop_filter.hitSingleRequests      1282421                       # Number of requests hitting in the snoop filter with a single holder of the requested data. (Count)
system.tol3bus.snoop_filter.hitMultiRequests            0                       # Number of requests hitting in the snoop filter with multiple (>1) holders of the requested data. (Count)
system.tol3bus.snoop_filter.totSnoops            7381                       # Total number of snoops made to the snoop filter. (Count)
system.tol3bus.snoop_filter.hitSingleSnoops         7381                       # Number of snoops hitting in the snoop filter with a single holder of the requested data. (Count)
system.tol3bus.snoop_filter.hitMultiSnoops            0                       # Number of snoops hitting in the snoop filter with multiple (>1) holders of the requested data. (Count)
system.voltage_domain.voltage                       1                       # Voltage in Volts (Volt)
system.workload.inst.arm                            0                       # number of arm instructions executed (Count)
system.workload.inst.quiesce                        0                       # number of quiesce instructions executed (Count)

---------- End Simulation Statistics   ----------
