
---------- Begin Simulation Statistics ----------
simSeconds                                   0.009152                       # Number of seconds simulated (Second)
simTicks                                   9151904934                       # Number of ticks simulated (Tick)
finalTick                                  9151904934                       # Number of ticks from beginning of simulation (restored from checkpoints and never reset) (Tick)
simFreq                                  1000000000000                       # The number of ticks per simulated second ((Tick/Second))
hostSeconds                                     54.82                       # Real time elapsed on the host (Second)
hostTickRate                                166957181                       # The number of ticks simulated per host second (ticks/s) ((Tick/Second))
hostMemory                                     711020                       # Number of bytes of host memory used (Byte)
simInsts                                     43918960                       # Number of instructions simulated (Count)
simOps                                       43919026                       # Number of ops (including micro ops) simulated (Count)
hostInstRate                                   801202                       # Simulator instruction rate (inst/s) ((Count/Second))
hostOpRate                                     801202                       # Simulator op (including micro ops) rate (op/s) ((Count/Second))
system.clk_domain.clock                          1000                       # Clock period in ticks (Tick)
system.cpu.numCycles                         27483199                       # Number of cpu cycles simulated (Cycle)
system.cpu.numWorkItemsStarted                      0                       # Number of work items this cpu started (Count)
system.cpu.numWorkItemsCompleted                    0                       # Number of work items this cpu completed (Count)
system.cpu.instsAdded                        44340838                       # Number of instructions added to the IQ (excludes non-spec) (Count)
system.cpu.nonSpecInstsAdded                    66932                       # Number of non-speculative instructions added to the IQ (Count)
system.cpu.instsIssued                       44499718                       # Number of instructions issued (Count)
system.cpu.squashedInstsIssued                  15692                       # Number of squashed instructions issued (Count)
system.cpu.squashedInstsExamined               488743                       # Number of squashed instructions iterated over during squash; mainly for profiling (Count)
system.cpu.squashedOperandsExamined            416059                       # Number of squashed operands that are examined and possibly removed from graph (Count)
system.cpu.squashedNonSpecRemoved                 867                       # Number of squashed non-spec instructions that were removed (Count)
system.cpu.numIssuedDist::samples            27403226                       # Number of insts issued each cycle (Count)
system.cpu.numIssuedDist::mean               1.623886                       # Number of insts issued each cycle (Count)
system.cpu.numIssuedDist::stdev              2.064976                       # Number of insts issued each cycle (Count)
system.cpu.numIssuedDist::underflows                0      0.00%      0.00% # Number of insts issued each cycle (Count)
system.cpu.numIssuedDist::0                  13127112     47.90%     47.90% # Number of insts issued each cycle (Count)
system.cpu.numIssuedDist::1                   3499652     12.77%     60.67% # Number of insts issued each cycle (Count)
system.cpu.numIssuedDist::2                   2816344     10.28%     70.95% # Number of insts issued each cycle (Count)
system.cpu.numIssuedDist::3                   2850266     10.40%     81.35% # Number of insts issued each cycle (Count)
system.cpu.numIssuedDist::4                   1844737      6.73%     88.08% # Number of insts issued each cycle (Count)
system.cpu.numIssuedDist::5                   1401213      5.11%     93.20% # Number of insts issued each cycle (Count)
system.cpu.numIssuedDist::6                   1027358      3.75%     96.95% # Number of insts issued each cycle (Count)
system.cpu.numIssuedDist::7                    424933      1.55%     98.50% # Number of insts issued each cycle (Count)
system.cpu.numIssuedDist::8                    411611      1.50%    100.00% # Number of insts issued each cycle (Count)
system.cpu.numIssuedDist::overflows                 0      0.00%    100.00% # Number of insts issued each cycle (Count)
system.cpu.numIssuedDist::min_value                 0                       # Number of insts issued each cycle (Count)
system.cpu.numIssuedDist::max_value                 8                       # Number of insts issued each cycle (Count)
system.cpu.numIssuedDist::total              27403226                       # Number of insts issued each cycle (Count)
system.cpu.statFuBusy::No_OpClass                   0      0.00%      0.00% # attempts to use FU when none available (Count)
system.cpu.statFuBusy::IntAlu                   50605      4.22%      4.22% # attempts to use FU when none available (Count)
system.cpu.statFuBusy::IntMult                      2      0.00%      4.22% # attempts to use FU when none available (Count)
system.cpu.statFuBusy::IntDiv                      12      0.00%      4.22% # attempts to use FU when none available (Count)
system.cpu.statFuBusy::FloatAdd                  3576      0.30%      4.52% # attempts to use FU when none available (Count)
system.cpu.statFuBusy::FloatCmp                     0      0.00%      4.52% # attempts to use FU when none available (Count)
system.cpu.statFuBusy::FloatCvt                  8213      0.68%      5.20% # attempts to use FU when none available (Count)
system.cpu.statFuBusy::FloatMult               154195     12.86%     18.06% # attempts to use FU when none available (Count)
system.cpu.statFuBusy::FloatMultAcc            168614     14.06%     32.12% # attempts to use FU when none available (Count)
system.cpu.statFuBusy::FloatDiv                  5120      0.43%     32.55% # attempts to use FU when none available (Count)
system.cpu.statFuBusy::FloatMisc                14254      1.19%     33.74% # attempts to use FU when none available (Count)
system.cpu.statFuBusy::FloatSqrt                    0      0.00%     33.74% # attempts to use FU when none available (Count)
system.cpu.statFuBusy::SimdAdd                      0      0.00%     33.74% # attempts to use FU when none available (Count)
system.cpu.statFuBusy::SimdAddAcc                   0      0.00%     33.74% # attempts to use FU when none available (Count)
system.cpu.statFuBusy::SimdAlu                      0      0.00%     33.74% # attempts to use FU when none available (Count)
system.cpu.statFuBusy::SimdCmp                      0      0.00%     33.74% # attempts to use FU when none available (Count)
system.cpu.statFuBusy::SimdCvt                      0      0.00%     33.74% # attempts to use FU when none available (Count)
system.cpu.statFuBusy::SimdMisc                     0      0.00%     33.74% # attempts to use FU when none available (Count)
system.cpu.statFuBusy::SimdMult                     0      0.00%     33.74% # attempts to use FU when none available (Count)
system.cpu.statFuBusy::SimdMultAcc                  0      0.00%     33.74% # attempts to use FU when none available (Count)
system.cpu.statFuBusy::SimdShift                    0      0.00%     33.74% # attempts to use FU when none available (Count)
system.cpu.statFuBusy::SimdShiftAcc                 0      0.00%     33.74% # attempts to use FU when none available (Count)
system.cpu.statFuBusy::SimdDiv                      0      0.00%     33.74% # attempts to use FU when none available (Count)
system.cpu.statFuBusy::SimdSqrt                     0      0.00%     33.74% # attempts to use FU when none available (Count)
system.cpu.statFuBusy::SimdFloatAdd                 0      0.00%     33.74% # attempts to use FU when none available (Count)
system.cpu.statFuBusy::SimdFloatAlu                 0      0.00%     33.74% # attempts to use FU when none available (Count)
system.cpu.statFuBusy::SimdFloatCmp                 0      0.00%     33.74% # attempts to use FU when none available (Count)
system.cpu.statFuBusy::SimdFloatCvt                 0      0.00%     33.74% # attempts to use FU when none available (Count)
system.cpu.statFuBusy::SimdFloatDiv                 0      0.00%     33.74% # attempts to use FU when none available (Count)
system.cpu.statFuBusy::SimdFloatMisc                0      0.00%     33.74% # attempts to use FU when none available (Count)
system.cpu.statFuBusy::SimdFloatMult                0      0.00%     33.74% # attempts to use FU when none available (Count)
system.cpu.statFuBusy::SimdFloatMultAcc             0      0.00%     33.74% # attempts to use FU when none available (Count)
system.cpu.statFuBusy::SimdFloatSqrt                0      0.00%     33.74% # attempts to use FU when none available (Count)
system.cpu.statFuBusy::SimdReduceAdd                0      0.00%     33.74% # attempts to use FU when none available (Count)
system.cpu.statFuBusy::SimdReduceAlu                0      0.00%     33.74% # attempts to use FU when none available (Count)
system.cpu.statFuBusy::SimdReduceCmp                0      0.00%     33.74% # attempts to use FU when none available (Count)
system.cpu.statFuBusy::SimdFloatReduceAdd            0      0.00%     33.74% # attempts to use FU when none available (Count)
system.cpu.statFuBusy::SimdFloatReduceCmp            0      0.00%     33.74% # attempts to use FU when none available (Count)
system.cpu.statFuBusy::SimdAes                      0      0.00%     33.74% # attempts to use FU when none available (Count)
system.cpu.statFuBusy::SimdAesMix                   0      0.00%     33.74% # attempts to use FU when none available (Count)
system.cpu.statFuBusy::SimdSha1Hash                 0      0.00%     33.74% # attempts to use FU when none available (Count)
system.cpu.statFuBusy::SimdSha1Hash2                0      0.00%     33.74% # attempts to use FU when none available (Count)
system.cpu.statFuBusy::SimdSha256Hash               0      0.00%     33.74% # attempts to use FU when none available (Count)
system.cpu.statFuBusy::SimdSha256Hash2              0      0.00%     33.74% # attempts to use FU when none available (Count)
system.cpu.statFuBusy::SimdShaSigma2                0      0.00%     33.74% # attempts to use FU when none available (Count)
system.cpu.statFuBusy::SimdShaSigma3                0      0.00%     33.74% # attempts to use FU when none available (Count)
system.cpu.statFuBusy::SimdPredAlu                  0      0.00%     33.74% # attempts to use FU when none available (Count)
system.cpu.statFuBusy::MemRead                  19510      1.63%     35.36% # attempts to use FU when none available (Count)
system.cpu.statFuBusy::MemWrite                 54019      4.50%     39.87% # attempts to use FU when none available (Count)
system.cpu.statFuBusy::FloatMemRead            686063     57.21%     97.08% # attempts to use FU when none available (Count)
system.cpu.statFuBusy::FloatMemWrite            35035      2.92%    100.00% # attempts to use FU when none available (Count)
system.cpu.statFuBusy::IprAccess                    0      0.00%    100.00% # attempts to use FU when none available (Count)
system.cpu.statFuBusy::InstPrefetch                 0      0.00%    100.00% # attempts to use FU when none available (Count)
system.cpu.statIssuedInstType_0::No_OpClass        65942      0.15%      0.15% # Number of instructions issued per FU type, per thread (Count)
system.cpu.statIssuedInstType_0::IntAlu      21471434     48.25%     48.40% # Number of instructions issued per FU type, per thread (Count)
system.cpu.statIssuedInstType_0::IntMult       132152      0.30%     48.70% # Number of instructions issued per FU type, per thread (Count)
system.cpu.statIssuedInstType_0::IntDiv          4798      0.01%     48.71% # Number of instructions issued per FU type, per thread (Count)
system.cpu.statIssuedInstType_0::FloatAdd      4008136      9.01%     57.71% # Number of instructions issued per FU type, per thread (Count)
system.cpu.statIssuedInstType_0::FloatCmp       185481      0.42%     58.13% # Number of instructions issued per FU type, per thread (Count)
system.cpu.statIssuedInstType_0::FloatCvt       897884      2.02%     60.15% # Number of instructions issued per FU type, per thread (Count)
system.cpu.statIssuedInstType_0::FloatMult      3457284      7.77%     67.92% # Number of instructions issued per FU type, per thread (Count)
system.cpu.statIssuedInstType_0::FloatMultAcc      1067141      2.40%     70.32% # Number of instructions issued per FU type, per thread (Count)
system.cpu.statIssuedInstType_0::FloatDiv        66271      0.15%     70.46% # Number of instructions issued per FU type, per thread (Count)
system.cpu.statIssuedInstType_0::FloatMisc       338054      0.76%     71.22% # Number of instructions issued per FU type, per thread (Count)
system.cpu.statIssuedInstType_0::FloatSqrt            0      0.00%     71.22% # Number of instructions issued per FU type, per thread (Count)
system.cpu.statIssuedInstType_0::SimdAdd            0      0.00%     71.22% # Number of instructions issued per FU type, per thread (Count)
system.cpu.statIssuedInstType_0::SimdAddAcc            0      0.00%     71.22% # Number of instructions issued per FU type, per thread (Count)
system.cpu.statIssuedInstType_0::SimdAlu            0      0.00%     71.22% # Number of instructions issued per FU type, per thread (Count)
system.cpu.statIssuedInstType_0::SimdCmp            0      0.00%     71.22% # Number of instructions issued per FU type, per thread (Count)
system.cpu.statIssuedInstType_0::SimdCvt            0      0.00%     71.22% # Number of instructions issued per FU type, per thread (Count)
system.cpu.statIssuedInstType_0::SimdMisc            0      0.00%     71.22% # Number of instructions issued per FU type, per thread (Count)
system.cpu.statIssuedInstType_0::SimdMult            0      0.00%     71.22% # Number of instructions issued per FU type, per thread (Count)
system.cpu.statIssuedInstType_0::SimdMultAcc            0      0.00%     71.22% # Number of instructions issued per FU type, per thread (Count)
system.cpu.statIssuedInstType_0::SimdShift            0      0.00%     71.22% # Number of instructions issued per FU type, per thread (Count)
system.cpu.statIssuedInstType_0::SimdShiftAcc            0      0.00%     71.22% # Number of instructions issued per FU type, per thread (Count)
system.cpu.statIssuedInstType_0::SimdDiv            0      0.00%     71.22% # Number of instructions issued per FU type, per thread (Count)
system.cpu.statIssuedInstType_0::SimdSqrt            0      0.00%     71.22% # Number of instructions issued per FU type, per thread (Count)
system.cpu.statIssuedInstType_0::SimdFloatAdd            0      0.00%     71.22% # Number of instructions issued per FU type, per thread (Count)
system.cpu.statIssuedInstType_0::SimdFloatAlu            0      0.00%     71.22% # Number of instructions issued per FU type, per thread (Count)
system.cpu.statIssuedInstType_0::SimdFloatCmp            0      0.00%     71.22% # Number of instructions issued per FU type, per thread (Count)
system.cpu.statIssuedInstType_0::SimdFloatCvt            0      0.00%     71.22% # Number of instructions issued per FU type, per thread (Count)
system.cpu.statIssuedInstType_0::SimdFloatDiv            0      0.00%     71.22% # Number of instructions issued per FU type, per thread (Count)
system.cpu.statIssuedInstType_0::SimdFloatMisc            0      0.00%     71.22% # Number of instructions issued per FU type, per thread (Count)
system.cpu.statIssuedInstType_0::SimdFloatMult            0      0.00%     71.22% # Number of instructions issued per FU type, per thread (Count)
system.cpu.statIssuedInstType_0::SimdFloatMultAcc            0      0.00%     71.22% # Number of instructions issued per FU type, per thread (Count)
system.cpu.statIssuedInstType_0::SimdFloatSqrt            0      0.00%     71.22% # Number of instructions issued per FU type, per thread (Count)
system.cpu.statIssuedInstType_0::SimdReduceAdd            0      0.00%     71.22% # Number of instructions issued per FU type, per thread (Count)
system.cpu.statIssuedInstType_0::SimdReduceAlu            0      0.00%     71.22% # Number of instructions issued per FU type, per thread (Count)
system.cpu.statIssuedInstType_0::SimdReduceCmp            0      0.00%     71.22% # Number of instructions issued per FU type, per thread (Count)
system.cpu.statIssuedInstType_0::SimdFloatReduceAdd            0      0.00%     71.22% # Number of instructions issued per FU type, per thread (Count)
system.cpu.statIssuedInstType_0::SimdFloatReduceCmp            0      0.00%     71.22% # Number of instructions issued per FU type, per thread (Count)
system.cpu.statIssuedInstType_0::SimdAes            0      0.00%     71.22% # Number of instructions issued per FU type, per thread (Count)
system.cpu.statIssuedInstType_0::SimdAesMix            0      0.00%     71.22% # Number of instructions issued per FU type, per thread (Count)
system.cpu.statIssuedInstType_0::SimdSha1Hash            0      0.00%     71.22% # Number of instructions issued per FU type, per thread (Count)
system.cpu.statIssuedInstType_0::SimdSha1Hash2            0      0.00%     71.22% # Number of instructions issued per FU type, per thread (Count)
system.cpu.statIssuedInstType_0::SimdSha256Hash            0      0.00%     71.22% # Number of instructions issued per FU type, per thread (Count)
system.cpu.statIssuedInstType_0::SimdSha256Hash2            0      0.00%     71.22% # Number of instructions issued per FU type, per thread (Count)
system.cpu.statIssuedInstType_0::SimdShaSigma2            0      0.00%     71.22% # Number of instructions issued per FU type, per thread (Count)
system.cpu.statIssuedInstType_0::SimdShaSigma3            0      0.00%     71.22% # Number of instructions issued per FU type, per thread (Count)
system.cpu.statIssuedInstType_0::SimdPredAlu            0      0.00%     71.22% # Number of instructions issued per FU type, per thread (Count)
system.cpu.statIssuedInstType_0::MemRead      2124491      4.77%     76.00% # Number of instructions issued per FU type, per thread (Count)
system.cpu.statIssuedInstType_0::MemWrite      1264848      2.84%     78.84% # Number of instructions issued per FU type, per thread (Count)
system.cpu.statIssuedInstType_0::FloatMemRead      5997033     13.48%     92.32% # Number of instructions issued per FU type, per thread (Count)
system.cpu.statIssuedInstType_0::FloatMemWrite      3418769      7.68%    100.00% # Number of instructions issued per FU type, per thread (Count)
system.cpu.statIssuedInstType_0::IprAccess            0      0.00%    100.00% # Number of instructions issued per FU type, per thread (Count)
system.cpu.statIssuedInstType_0::InstPrefetch            0      0.00%    100.00% # Number of instructions issued per FU type, per thread (Count)
system.cpu.statIssuedInstType_0::total       44499718                       # Number of instructions issued per FU type, per thread (Count)
system.cpu.issueRate                         1.619161                       # Inst issue rate ((Count/Cycle))
system.cpu.fuBusy                             1199218                       # FU busy when requested (Count)
system.cpu.fuBusyRate                        0.026949                       # FU busy rate (busy events/executed inst) ((Count/Count))
system.cpu.intInstQueueReads                 77655094                       # Number of integer instruction queue reads (Count)
system.cpu.intInstQueueWrites                25300614                       # Number of integer instruction queue writes (Count)
system.cpu.intInstQueueWakeupAccesses        25012005                       # Number of integer instruction queue wakeup accesses (Count)
system.cpu.fpInstQueueReads                  39962478                       # Number of floating instruction queue reads (Count)
system.cpu.fpInstQueueWrites                 19596217                       # Number of floating instruction queue writes (Count)
system.cpu.fpInstQueueWakeupAccesses         19086884                       # Number of floating instruction queue wakeup accesses (Count)
system.cpu.vecInstQueueReads                        0                       # Number of vector instruction queue reads (Count)
system.cpu.vecInstQueueWrites                       0                       # Number of vector instruction queue writes (Count)
system.cpu.vecInstQueueWakeupAccesses               0                       # Number of vector instruction queue wakeup accesses (Count)
system.cpu.intAluAccesses                    25121871                       # Number of integer alu accesses (Count)
system.cpu.fpAluAccesses                     20511123                       # Number of floating point alu accesses (Count)
system.cpu.vecAluAccesses                           0                       # Number of vector alu accesses (Count)
system.cpu.numInsts                          44396513                       # Number of executed instructions (Count)
system.cpu.numLoadInsts                       8067891                       # Number of load instructions executed (Count)
system.cpu.numSquashedInsts                    103205                       # Number of squashed instructions skipped in execute (Count)
system.cpu.numSwp                                   0                       # Number of swp insts executed (Count)
system.cpu.numNop                                   0                       # Number of nop insts executed (Count)
system.cpu.numRefs                           12750437                       # Number of memory reference insts executed (Count)
system.cpu.numBranches                        4609263                       # Number of branches executed (Count)
system.cpu.numStoreInsts                      4682546                       # Number of stores executed (Count)
system.cpu.numRate                           1.615406                       # Inst execution rate ((Count/Cycle))
system.cpu.timesIdled                             475                       # Number of times that the entire CPU went into an idle state and unscheduled itself (Count)
system.cpu.idleCycles                           79973                       # Total number of cycles that the CPU has spent unscheduled due to idling (Cycle)
system.cpu.committedInsts                    43918960                       # Number of Instructions Simulated (Count)
system.cpu.committedOps                      43919026                       # Number of Ops (including micro ops) Simulated (Count)
system.cpu.cpi                               0.625771                       # CPI: Cycles Per Instruction ((Cycle/Count))
system.cpu.totalCpi                          0.625771                       # CPI: Total CPI of All Threads ((Cycle/Count))
system.cpu.ipc                               1.598029                       # IPC: Instructions Per Cycle ((Count/Cycle))
system.cpu.totalIpc                          1.598029                       # IPC: Total IPC of All Threads ((Count/Cycle))
system.cpu.intRegfileReads                   40171400                       # Number of integer regfile reads (Count)
system.cpu.intRegfileWrites                  19936354                       # Number of integer regfile writes (Count)
system.cpu.fpRegfileReads                    22874264                       # Number of floating regfile reads (Count)
system.cpu.fpRegfileWrites                   15353575                       # Number of floating regfile writes (Count)
system.cpu.miscRegfileReads                  37772742                       # number of misc regfile reads (Count)
system.cpu.miscRegfileWrites                 10004390                       # number of misc regfile writes (Count)
system.cpu.MemDepUnit__0.insertedLoads        7889508                       # Number of loads inserted to the mem dependence unit. (Count)
system.cpu.MemDepUnit__0.insertedStores       4730074                       # Number of stores inserted to the mem dependence unit. (Count)
system.cpu.MemDepUnit__0.conflictingLoads       931418                       # Number of conflicting loads. (Count)
system.cpu.MemDepUnit__0.conflictingStores       417693                       # Number of conflicting stores. (Count)
system.cpu.MemDepUnit__1.insertedLoads              0                       # Number of loads inserted to the mem dependence unit. (Count)
system.cpu.MemDepUnit__1.insertedStores             0                       # Number of stores inserted to the mem dependence unit. (Count)
system.cpu.MemDepUnit__1.conflictingLoads            0                       # Number of conflicting loads. (Count)
system.cpu.MemDepUnit__1.conflictingStores            0                       # Number of conflicting stores. (Count)
system.cpu.MemDepUnit__2.insertedLoads              0                       # Number of loads inserted to the mem dependence unit. (Count)
system.cpu.MemDepUnit__2.insertedStores             0                       # Number of stores inserted to the mem dependence unit. (Count)
system.cpu.MemDepUnit__2.conflictingLoads            0                       # Number of conflicting loads. (Count)
system.cpu.MemDepUnit__2.conflictingStores            0                       # Number of conflicting stores. (Count)
system.cpu.MemDepUnit__3.insertedLoads              0                       # Number of loads inserted to the mem dependence unit. (Count)
system.cpu.MemDepUnit__3.insertedStores             0                       # Number of stores inserted to the mem dependence unit. (Count)
system.cpu.MemDepUnit__3.conflictingLoads            0                       # Number of conflicting loads. (Count)
system.cpu.MemDepUnit__3.conflictingStores            0                       # Number of conflicting stores. (Count)
system.cpu.branchPred.lookups                 4702788                       # Number of BP lookups (Count)
system.cpu.branchPred.condPredicted           3695420                       # Number of conditional branches predicted (Count)
system.cpu.branchPred.condIncorrect             35598                       # Number of conditional branches incorrect (Count)
system.cpu.branchPred.BTBLookups              2898304                       # Number of BTB lookups (Count)
system.cpu.branchPred.BTBHits                 2896654                       # Number of BTB hits (Count)
system.cpu.branchPred.BTBHitRatio            0.999431                       # BTB Hit Ratio (Ratio)
system.cpu.branchPred.RASUsed                  463887                       # Number of times the RAS was used to get a target. (Count)
system.cpu.branchPred.RASIncorrect                 11                       # Number of incorrect RAS predictions. (Count)
system.cpu.branchPred.indirectLookups             483                       # Number of indirect predictor lookups. (Count)
system.cpu.branchPred.indirectHits                173                       # Number of indirect target hits. (Count)
system.cpu.branchPred.indirectMisses              310                       # Number of indirect misses. (Count)
system.cpu.branchPred.indirectMispredicted          133                       # Number of mispredicted indirect branches. (Count)
system.cpu.commit.commitSquashedInsts          477823                       # The number of squashed insts skipped by commit (Count)
system.cpu.commit.commitNonSpecStalls           66065                       # The number of times commit has been forced to stall to communicate backwards (Count)
system.cpu.commit.branchMispredicts             35142                       # The number of times a branch was mispredicted (Count)
system.cpu.commit.numCommittedDist::samples     27332615                       # Number of insts commited each cycle (Count)
system.cpu.commit.numCommittedDist::mean     1.606836                       # Number of insts commited each cycle (Count)
system.cpu.commit.numCommittedDist::stdev     2.568890                       # Number of insts commited each cycle (Count)
system.cpu.commit.numCommittedDist::underflows            0      0.00%      0.00% # Number of insts commited each cycle (Count)
system.cpu.commit.numCommittedDist::0        16227727     59.37%     59.37% # Number of insts commited each cycle (Count)
system.cpu.commit.numCommittedDist::1         2070580      7.58%     66.95% # Number of insts commited each cycle (Count)
system.cpu.commit.numCommittedDist::2         2340755      8.56%     75.51% # Number of insts commited each cycle (Count)
system.cpu.commit.numCommittedDist::3         2027504      7.42%     82.93% # Number of insts commited each cycle (Count)
system.cpu.commit.numCommittedDist::4         1162996      4.25%     87.18% # Number of insts commited each cycle (Count)
system.cpu.commit.numCommittedDist::5          272035      1.00%     88.18% # Number of insts commited each cycle (Count)
system.cpu.commit.numCommittedDist::6          353538      1.29%     89.47% # Number of insts commited each cycle (Count)
system.cpu.commit.numCommittedDist::7           68803      0.25%     89.72% # Number of insts commited each cycle (Count)
system.cpu.commit.numCommittedDist::8         2808677     10.28%    100.00% # Number of insts commited each cycle (Count)
system.cpu.commit.numCommittedDist::overflows            0      0.00%    100.00% # Number of insts commited each cycle (Count)
system.cpu.commit.numCommittedDist::min_value            0                       # Number of insts commited each cycle (Count)
system.cpu.commit.numCommittedDist::max_value            8                       # Number of insts commited each cycle (Count)
system.cpu.commit.numCommittedDist::total     27332615                       # Number of insts commited each cycle (Count)
system.cpu.commit.instsCommitted             43918960                       # Number of instructions committed (Count)
system.cpu.commit.opsCommitted               43919026                       # Number of ops (including micro ops) committed (Count)
system.cpu.commit.memRefs                    12413677                       # Number of memory references committed (Count)
system.cpu.commit.loads                       7747910                       # Number of loads committed (Count)
system.cpu.commit.amos                             70                       # Number of atomic instructions committed (Count)
system.cpu.commit.membars                         121                       # Number of memory barriers committed (Count)
system.cpu.commit.branches                    4588248                       # Number of branches committed (Count)
system.cpu.commit.vectorInstructions                0                       # Number of committed Vector instructions. (Count)
system.cpu.commit.floating                   19050493                       # Number of committed floating point instructions. (Count)
system.cpu.commit.integer                    34913281                       # Number of committed integer instructions. (Count)
system.cpu.commit.functionCalls                460874                       # Number of function calls committed. (Count)
system.cpu.commit.committedInstType_0::No_OpClass        65913      0.15%      0.15% # Class of committed instruction (Count)
system.cpu.commit.committedInstType_0::IntAlu     21298928     48.50%     48.65% # Class of committed instruction (Count)
system.cpu.commit.committedInstType_0::IntMult       131871      0.30%     48.95% # Class of committed instruction (Count)
system.cpu.commit.committedInstType_0::IntDiv         4247      0.01%     48.96% # Class of committed instruction (Count)
system.cpu.commit.committedInstType_0::FloatAdd      4007469      9.12%     58.08% # Class of committed instruction (Count)
system.cpu.commit.committedInstType_0::FloatCmp       183887      0.42%     58.50% # Class of committed instruction (Count)
system.cpu.commit.committedInstType_0::FloatCvt       889498      2.03%     60.52% # Class of committed instruction (Count)
system.cpu.commit.committedInstType_0::FloatMult      3453945      7.86%     68.39% # Class of committed instruction (Count)
system.cpu.commit.committedInstType_0::FloatMultAcc      1066472      2.43%     70.82% # Class of committed instruction (Count)
system.cpu.commit.committedInstType_0::FloatDiv        65794      0.15%     70.97% # Class of committed instruction (Count)
system.cpu.commit.committedInstType_0::FloatMisc       337325      0.77%     71.74% # Class of committed instruction (Count)
system.cpu.commit.committedInstType_0::FloatSqrt            0      0.00%     71.74% # Class of committed instruction (Count)
system.cpu.commit.committedInstType_0::SimdAdd            0      0.00%     71.74% # Class of committed instruction (Count)
system.cpu.commit.committedInstType_0::SimdAddAcc            0      0.00%     71.74% # Class of committed instruction (Count)
system.cpu.commit.committedInstType_0::SimdAlu            0      0.00%     71.74% # Class of committed instruction (Count)
system.cpu.commit.committedInstType_0::SimdCmp            0      0.00%     71.74% # Class of committed instruction (Count)
system.cpu.commit.committedInstType_0::SimdCvt            0      0.00%     71.74% # Class of committed instruction (Count)
system.cpu.commit.committedInstType_0::SimdMisc            0      0.00%     71.74% # Class of committed instruction (Count)
system.cpu.commit.committedInstType_0::SimdMult            0      0.00%     71.74% # Class of committed instruction (Count)
system.cpu.commit.committedInstType_0::SimdMultAcc            0      0.00%     71.74% # Class of committed instruction (Count)
system.cpu.commit.committedInstType_0::SimdShift            0      0.00%     71.74% # Class of committed instruction (Count)
system.cpu.commit.committedInstType_0::SimdShiftAcc            0      0.00%     71.74% # Class of committed instruction (Count)
system.cpu.commit.committedInstType_0::SimdDiv            0      0.00%     71.74% # Class of committed instruction (Count)
system.cpu.commit.committedInstType_0::SimdSqrt            0      0.00%     71.74% # Class of committed instruction (Count)
system.cpu.commit.committedInstType_0::SimdFloatAdd            0      0.00%     71.74% # Class of committed instruction (Count)
system.cpu.commit.committedInstType_0::SimdFloatAlu            0      0.00%     71.74% # Class of committed instruction (Count)
system.cpu.commit.committedInstType_0::SimdFloatCmp            0      0.00%     71.74% # Class of committed instruction (Count)
system.cpu.commit.committedInstType_0::SimdFloatCvt            0      0.00%     71.74% # Class of committed instruction (Count)
system.cpu.commit.committedInstType_0::SimdFloatDiv            0      0.00%     71.74% # Class of committed instruction (Count)
system.cpu.commit.committedInstType_0::SimdFloatMisc            0      0.00%     71.74% # Class of committed instruction (Count)
system.cpu.commit.committedInstType_0::SimdFloatMult            0      0.00%     71.74% # Class of committed instruction (Count)
system.cpu.commit.committedInstType_0::SimdFloatMultAcc            0      0.00%     71.74% # Class of committed instruction (Count)
system.cpu.commit.committedInstType_0::SimdFloatSqrt            0      0.00%     71.74% # Class of committed instruction (Count)
system.cpu.commit.committedInstType_0::SimdReduceAdd            0      0.00%     71.74% # Class of committed instruction (Count)
system.cpu.commit.committedInstType_0::SimdReduceAlu            0      0.00%     71.74% # Class of committed instruction (Count)
system.cpu.commit.committedInstType_0::SimdReduceCmp            0      0.00%     71.74% # Class of committed instruction (Count)
system.cpu.commit.committedInstType_0::SimdFloatReduceAdd            0      0.00%     71.74% # Class of committed instruction (Count)
system.cpu.commit.committedInstType_0::SimdFloatReduceCmp            0      0.00%     71.74% # Class of committed instruction (Count)
system.cpu.commit.committedInstType_0::SimdAes            0      0.00%     71.74% # Class of committed instruction (Count)
system.cpu.commit.committedInstType_0::SimdAesMix            0      0.00%     71.74% # Class of committed instruction (Count)
system.cpu.commit.committedInstType_0::SimdSha1Hash            0      0.00%     71.74% # Class of committed instruction (Count)
system.cpu.commit.committedInstType_0::SimdSha1Hash2            0      0.00%     71.74% # Class of committed instruction (Count)
system.cpu.commit.committedInstType_0::SimdSha256Hash            0      0.00%     71.74% # Class of committed instruction (Count)
system.cpu.commit.committedInstType_0::SimdSha256Hash2            0      0.00%     71.74% # Class of committed instruction (Count)
system.cpu.commit.committedInstType_0::SimdShaSigma2            0      0.00%     71.74% # Class of committed instruction (Count)
system.cpu.commit.committedInstType_0::SimdShaSigma3            0      0.00%     71.74% # Class of committed instruction (Count)
system.cpu.commit.committedInstType_0::SimdPredAlu            0      0.00%     71.74% # Class of committed instruction (Count)
system.cpu.commit.committedInstType_0::MemRead      2110959      4.81%     76.54% # Class of committed instruction (Count)
system.cpu.commit.committedInstType_0::MemWrite      1256615      2.86%     79.40% # Class of committed instruction (Count)
system.cpu.commit.committedInstType_0::FloatMemRead      5637021     12.84%     92.24% # Class of committed instruction (Count)
system.cpu.commit.committedInstType_0::FloatMemWrite      3409082      7.76%    100.00% # Class of committed instruction (Count)
system.cpu.commit.committedInstType_0::IprAccess            0      0.00%    100.00% # Class of committed instruction (Count)
system.cpu.commit.committedInstType_0::InstPrefetch            0      0.00%    100.00% # Class of committed instruction (Count)
system.cpu.commit.committedInstType_0::total     43919026                       # Class of committed instruction (Count)
system.cpu.commit.commitEligibleSamples       2808677                       # number cycles where commit BW limit reached (Cycle)
system.cpu.dcache.demandHits::cpu.data       10798149                       # number of demand (read+write) hits (Count)
system.cpu.dcache.demandHits::total          10798149                       # number of demand (read+write) hits (Count)
system.cpu.dcache.overallHits::cpu.data      10798149                       # number of overall hits (Count)
system.cpu.dcache.overallHits::total         10798149                       # number of overall hits (Count)
system.cpu.dcache.demandMisses::cpu.data       672014                       # number of demand (read+write) misses (Count)
system.cpu.dcache.demandMisses::total          672014                       # number of demand (read+write) misses (Count)
system.cpu.dcache.overallMisses::cpu.data       672014                       # number of overall misses (Count)
system.cpu.dcache.overallMisses::total         672014                       # number of overall misses (Count)
system.cpu.dcache.demandMissLatency::cpu.data  17889836481                       # number of demand (read+write) miss ticks (Tick)
system.cpu.dcache.demandMissLatency::total  17889836481                       # number of demand (read+write) miss ticks (Tick)
system.cpu.dcache.overallMissLatency::cpu.data  17889836481                       # number of overall miss ticks (Tick)
system.cpu.dcache.overallMissLatency::total  17889836481                       # number of overall miss ticks (Tick)
system.cpu.dcache.demandAccesses::cpu.data     11470163                       # number of demand (read+write) accesses (Count)
system.cpu.dcache.demandAccesses::total      11470163                       # number of demand (read+write) accesses (Count)
system.cpu.dcache.overallAccesses::cpu.data     11470163                       # number of overall (read+write) accesses (Count)
system.cpu.dcache.overallAccesses::total     11470163                       # number of overall (read+write) accesses (Count)
system.cpu.dcache.demandMissRate::cpu.data     0.058588                       # miss rate for demand accesses (Ratio)
system.cpu.dcache.demandMissRate::total      0.058588                       # miss rate for demand accesses (Ratio)
system.cpu.dcache.overallMissRate::cpu.data     0.058588                       # miss rate for overall accesses (Ratio)
system.cpu.dcache.overallMissRate::total     0.058588                       # miss rate for overall accesses (Ratio)
system.cpu.dcache.demandAvgMissLatency::cpu.data 26621.225869                       # average overall miss latency in ticks ((Tick/Count))
system.cpu.dcache.demandAvgMissLatency::total 26621.225869                       # average overall miss latency in ticks ((Tick/Count))
system.cpu.dcache.overallAvgMissLatency::cpu.data 26621.225869                       # average overall miss latency ((Tick/Count))
system.cpu.dcache.overallAvgMissLatency::total 26621.225869                       # average overall miss latency ((Tick/Count))
system.cpu.dcache.blockedCycles::no_mshrs      2049907                       # number of cycles access was blocked (Cycle)
system.cpu.dcache.blockedCycles::no_targets          527                       # number of cycles access was blocked (Cycle)
system.cpu.dcache.blockedCauses::no_mshrs        87640                       # number of times access was blocked (Count)
system.cpu.dcache.blockedCauses::no_targets            5                       # number of times access was blocked (Count)
system.cpu.dcache.avgBlocked::no_mshrs      23.390084                       # average number of cycles each access was blocked ((Cycle/Count))
system.cpu.dcache.avgBlocked::no_targets   105.400000                       # average number of cycles each access was blocked ((Cycle/Count))
system.cpu.dcache.writebacks::writebacks       139575                       # number of writebacks (Count)
system.cpu.dcache.writebacks::total            139575                       # number of writebacks (Count)
system.cpu.dcache.demandMshrHits::cpu.data       484640                       # number of demand (read+write) MSHR hits (Count)
system.cpu.dcache.demandMshrHits::total        484640                       # number of demand (read+write) MSHR hits (Count)
system.cpu.dcache.overallMshrHits::cpu.data       484640                       # number of overall MSHR hits (Count)
system.cpu.dcache.overallMshrHits::total       484640                       # number of overall MSHR hits (Count)
system.cpu.dcache.demandMshrMisses::cpu.data       187374                       # number of demand (read+write) MSHR misses (Count)
system.cpu.dcache.demandMshrMisses::total       187374                       # number of demand (read+write) MSHR misses (Count)
system.cpu.dcache.overallMshrMisses::cpu.data       187374                       # number of overall MSHR misses (Count)
system.cpu.dcache.overallMshrMisses::total       187374                       # number of overall MSHR misses (Count)
system.cpu.dcache.demandMshrMissLatency::cpu.data   6594277640                       # number of demand (read+write) MSHR miss ticks (Tick)
system.cpu.dcache.demandMshrMissLatency::total   6594277640                       # number of demand (read+write) MSHR miss ticks (Tick)
system.cpu.dcache.overallMshrMissLatency::cpu.data   6594277640                       # number of overall MSHR miss ticks (Tick)
system.cpu.dcache.overallMshrMissLatency::total   6594277640                       # number of overall MSHR miss ticks (Tick)
system.cpu.dcache.demandMshrMissRate::cpu.data     0.016336                       # mshr miss ratio for demand accesses (Ratio)
system.cpu.dcache.demandMshrMissRate::total     0.016336                       # mshr miss ratio for demand accesses (Ratio)
system.cpu.dcache.overallMshrMissRate::cpu.data     0.016336                       # mshr miss ratio for overall accesses (Ratio)
system.cpu.dcache.overallMshrMissRate::total     0.016336                       # mshr miss ratio for overall accesses (Ratio)
system.cpu.dcache.demandAvgMshrMissLatency::cpu.data 35193.130530                       # average overall mshr miss latency ((Tick/Count))
system.cpu.dcache.demandAvgMshrMissLatency::total 35193.130530                       # average overall mshr miss latency ((Tick/Count))
system.cpu.dcache.overallAvgMshrMissLatency::cpu.data 35193.130530                       # average overall mshr miss latency ((Tick/Count))
system.cpu.dcache.overallAvgMshrMissLatency::total 35193.130530                       # average overall mshr miss latency ((Tick/Count))
system.cpu.dcache.replacements                 181810                       # number of replacements (Count)
system.cpu.dcache.LoadLockedReq.hits::cpu.data           55                       # number of LoadLockedReq hits (Count)
system.cpu.dcache.LoadLockedReq.hits::total           55                       # number of LoadLockedReq hits (Count)
system.cpu.dcache.LoadLockedReq.misses::cpu.data           17                       # number of LoadLockedReq misses (Count)
system.cpu.dcache.LoadLockedReq.misses::total           17                       # number of LoadLockedReq misses (Count)
system.cpu.dcache.LoadLockedReq.missLatency::cpu.data       499833                       # number of LoadLockedReq miss ticks (Tick)
system.cpu.dcache.LoadLockedReq.missLatency::total       499833                       # number of LoadLockedReq miss ticks (Tick)
system.cpu.dcache.LoadLockedReq.accesses::cpu.data           72                       # number of LoadLockedReq accesses(hits+misses) (Count)
system.cpu.dcache.LoadLockedReq.accesses::total           72                       # number of LoadLockedReq accesses(hits+misses) (Count)
system.cpu.dcache.LoadLockedReq.missRate::cpu.data     0.236111                       # miss rate for LoadLockedReq accesses (Ratio)
system.cpu.dcache.LoadLockedReq.missRate::total     0.236111                       # miss rate for LoadLockedReq accesses (Ratio)
system.cpu.dcache.LoadLockedReq.avgMissLatency::cpu.data 29401.941176                       # average LoadLockedReq miss latency ((Tick/Count))
system.cpu.dcache.LoadLockedReq.avgMissLatency::total 29401.941176                       # average LoadLockedReq miss latency ((Tick/Count))
system.cpu.dcache.LoadLockedReq.mshrHits::cpu.data            6                       # number of LoadLockedReq MSHR hits (Count)
system.cpu.dcache.LoadLockedReq.mshrHits::total            6                       # number of LoadLockedReq MSHR hits (Count)
system.cpu.dcache.LoadLockedReq.mshrMisses::cpu.data           11                       # number of LoadLockedReq MSHR misses (Count)
system.cpu.dcache.LoadLockedReq.mshrMisses::total           11                       # number of LoadLockedReq MSHR misses (Count)
system.cpu.dcache.LoadLockedReq.mshrMissLatency::cpu.data       382617                       # number of LoadLockedReq MSHR miss ticks (Tick)
system.cpu.dcache.LoadLockedReq.mshrMissLatency::total       382617                       # number of LoadLockedReq MSHR miss ticks (Tick)
system.cpu.dcache.LoadLockedReq.mshrMissRate::cpu.data     0.152778                       # mshr miss rate for LoadLockedReq accesses (Ratio)
system.cpu.dcache.LoadLockedReq.mshrMissRate::total     0.152778                       # mshr miss rate for LoadLockedReq accesses (Ratio)
system.cpu.dcache.LoadLockedReq.avgMshrMissLatency::cpu.data 34783.363636                       # average LoadLockedReq mshr miss latency ((Tick/Count))
system.cpu.dcache.LoadLockedReq.avgMshrMissLatency::total 34783.363636                       # average LoadLockedReq mshr miss latency ((Tick/Count))
system.cpu.dcache.ReadReq.hits::cpu.data      6344093                       # number of ReadReq hits (Count)
system.cpu.dcache.ReadReq.hits::total         6344093                       # number of ReadReq hits (Count)
system.cpu.dcache.ReadReq.misses::cpu.data       460427                       # number of ReadReq misses (Count)
system.cpu.dcache.ReadReq.misses::total        460427                       # number of ReadReq misses (Count)
system.cpu.dcache.ReadReq.missLatency::cpu.data   5806283571                       # number of ReadReq miss ticks (Tick)
system.cpu.dcache.ReadReq.missLatency::total   5806283571                       # number of ReadReq miss ticks (Tick)
system.cpu.dcache.ReadReq.accesses::cpu.data      6804520                       # number of ReadReq accesses(hits+misses) (Count)
system.cpu.dcache.ReadReq.accesses::total      6804520                       # number of ReadReq accesses(hits+misses) (Count)
system.cpu.dcache.ReadReq.missRate::cpu.data     0.067665                       # miss rate for ReadReq accesses (Ratio)
system.cpu.dcache.ReadReq.missRate::total     0.067665                       # miss rate for ReadReq accesses (Ratio)
system.cpu.dcache.ReadReq.avgMissLatency::cpu.data 12610.649617                       # average ReadReq miss latency ((Tick/Count))
system.cpu.dcache.ReadReq.avgMissLatency::total 12610.649617                       # average ReadReq miss latency ((Tick/Count))
system.cpu.dcache.ReadReq.mshrHits::cpu.data       361091                       # number of ReadReq MSHR hits (Count)
system.cpu.dcache.ReadReq.mshrHits::total       361091                       # number of ReadReq MSHR hits (Count)
system.cpu.dcache.ReadReq.mshrMisses::cpu.data        99336                       # number of ReadReq MSHR misses (Count)
system.cpu.dcache.ReadReq.mshrMisses::total        99336                       # number of ReadReq MSHR misses (Count)
system.cpu.dcache.ReadReq.mshrMissLatency::cpu.data   1479244608                       # number of ReadReq MSHR miss ticks (Tick)
system.cpu.dcache.ReadReq.mshrMissLatency::total   1479244608                       # number of ReadReq MSHR miss ticks (Tick)
system.cpu.dcache.ReadReq.mshrMissRate::cpu.data     0.014599                       # mshr miss rate for ReadReq accesses (Ratio)
system.cpu.dcache.ReadReq.mshrMissRate::total     0.014599                       # mshr miss rate for ReadReq accesses (Ratio)
system.cpu.dcache.ReadReq.avgMshrMissLatency::cpu.data 14891.324475                       # average ReadReq mshr miss latency ((Tick/Count))
system.cpu.dcache.ReadReq.avgMshrMissLatency::total 14891.324475                       # average ReadReq mshr miss latency ((Tick/Count))
system.cpu.dcache.StoreCondReq.hits::cpu.data           43                       # number of StoreCondReq hits (Count)
system.cpu.dcache.StoreCondReq.hits::total           43                       # number of StoreCondReq hits (Count)
system.cpu.dcache.StoreCondReq.misses::cpu.data           11                       # number of StoreCondReq misses (Count)
system.cpu.dcache.StoreCondReq.misses::total           11                       # number of StoreCondReq misses (Count)
system.cpu.dcache.StoreCondReq.missLatency::cpu.data        95238                       # number of StoreCondReq miss ticks (Tick)
system.cpu.dcache.StoreCondReq.missLatency::total        95238                       # number of StoreCondReq miss ticks (Tick)
system.cpu.dcache.StoreCondReq.accesses::cpu.data           54                       # number of StoreCondReq accesses(hits+misses) (Count)
system.cpu.dcache.StoreCondReq.accesses::total           54                       # number of StoreCondReq accesses(hits+misses) (Count)
system.cpu.dcache.StoreCondReq.missRate::cpu.data     0.203704                       # miss rate for StoreCondReq accesses (Ratio)
system.cpu.dcache.StoreCondReq.missRate::total     0.203704                       # miss rate for StoreCondReq accesses (Ratio)
system.cpu.dcache.StoreCondReq.avgMissLatency::cpu.data         8658                       # average StoreCondReq miss latency ((Tick/Count))
system.cpu.dcache.StoreCondReq.avgMissLatency::total         8658                       # average StoreCondReq miss latency ((Tick/Count))
system.cpu.dcache.StoreCondReq.mshrMisses::cpu.data           11                       # number of StoreCondReq MSHR misses (Count)
system.cpu.dcache.StoreCondReq.mshrMisses::total           11                       # number of StoreCondReq MSHR misses (Count)
system.cpu.dcache.StoreCondReq.mshrMissLatency::cpu.data        87912                       # number of StoreCondReq MSHR miss ticks (Tick)
system.cpu.dcache.StoreCondReq.mshrMissLatency::total        87912                       # number of StoreCondReq MSHR miss ticks (Tick)
system.cpu.dcache.StoreCondReq.mshrMissRate::cpu.data     0.203704                       # mshr miss rate for StoreCondReq accesses (Ratio)
system.cpu.dcache.StoreCondReq.mshrMissRate::total     0.203704                       # mshr miss rate for StoreCondReq accesses (Ratio)
system.cpu.dcache.StoreCondReq.avgMshrMissLatency::cpu.data         7992                       # average StoreCondReq mshr miss latency ((Tick/Count))
system.cpu.dcache.StoreCondReq.avgMshrMissLatency::total         7992                       # average StoreCondReq mshr miss latency ((Tick/Count))
system.cpu.dcache.SwapReq.hits::cpu.data           69                       # number of SwapReq hits (Count)
system.cpu.dcache.SwapReq.hits::total              69                       # number of SwapReq hits (Count)
system.cpu.dcache.SwapReq.misses::cpu.data            1                       # number of SwapReq misses (Count)
system.cpu.dcache.SwapReq.misses::total             1                       # number of SwapReq misses (Count)
system.cpu.dcache.SwapReq.missLatency::cpu.data        78921                       # number of SwapReq miss ticks (Tick)
system.cpu.dcache.SwapReq.missLatency::total        78921                       # number of SwapReq miss ticks (Tick)
system.cpu.dcache.SwapReq.accesses::cpu.data           70                       # number of SwapReq accesses(hits+misses) (Count)
system.cpu.dcache.SwapReq.accesses::total           70                       # number of SwapReq accesses(hits+misses) (Count)
system.cpu.dcache.SwapReq.missRate::cpu.data     0.014286                       # miss rate for SwapReq accesses (Ratio)
system.cpu.dcache.SwapReq.missRate::total     0.014286                       # miss rate for SwapReq accesses (Ratio)
system.cpu.dcache.SwapReq.avgMissLatency::cpu.data        78921                       # average SwapReq miss latency ((Tick/Count))
system.cpu.dcache.SwapReq.avgMissLatency::total        78921                       # average SwapReq miss latency ((Tick/Count))
system.cpu.dcache.SwapReq.mshrMisses::cpu.data            1                       # number of SwapReq MSHR misses (Count)
system.cpu.dcache.SwapReq.mshrMisses::total            1                       # number of SwapReq MSHR misses (Count)
system.cpu.dcache.SwapReq.mshrMissLatency::cpu.data        78255                       # number of SwapReq MSHR miss ticks (Tick)
system.cpu.dcache.SwapReq.mshrMissLatency::total        78255                       # number of SwapReq MSHR miss ticks (Tick)
system.cpu.dcache.SwapReq.mshrMissRate::cpu.data     0.014286                       # mshr miss rate for SwapReq accesses (Ratio)
system.cpu.dcache.SwapReq.mshrMissRate::total     0.014286                       # mshr miss rate for SwapReq accesses (Ratio)
system.cpu.dcache.SwapReq.avgMshrMissLatency::cpu.data        78255                       # average SwapReq mshr miss latency ((Tick/Count))
system.cpu.dcache.SwapReq.avgMshrMissLatency::total        78255                       # average SwapReq mshr miss latency ((Tick/Count))
system.cpu.dcache.WriteReq.hits::cpu.data      4454056                       # number of WriteReq hits (Count)
system.cpu.dcache.WriteReq.hits::total        4454056                       # number of WriteReq hits (Count)
system.cpu.dcache.WriteReq.misses::cpu.data       211587                       # number of WriteReq misses (Count)
system.cpu.dcache.WriteReq.misses::total       211587                       # number of WriteReq misses (Count)
system.cpu.dcache.WriteReq.missLatency::cpu.data  12083552910                       # number of WriteReq miss ticks (Tick)
system.cpu.dcache.WriteReq.missLatency::total  12083552910                       # number of WriteReq miss ticks (Tick)
system.cpu.dcache.WriteReq.accesses::cpu.data      4665643                       # number of WriteReq accesses(hits+misses) (Count)
system.cpu.dcache.WriteReq.accesses::total      4665643                       # number of WriteReq accesses(hits+misses) (Count)
system.cpu.dcache.WriteReq.missRate::cpu.data     0.045350                       # miss rate for WriteReq accesses (Ratio)
system.cpu.dcache.WriteReq.missRate::total     0.045350                       # miss rate for WriteReq accesses (Ratio)
system.cpu.dcache.WriteReq.avgMissLatency::cpu.data 57109.146167                       # average WriteReq miss latency ((Tick/Count))
system.cpu.dcache.WriteReq.avgMissLatency::total 57109.146167                       # average WriteReq miss latency ((Tick/Count))
system.cpu.dcache.WriteReq.mshrHits::cpu.data       123549                       # number of WriteReq MSHR hits (Count)
system.cpu.dcache.WriteReq.mshrHits::total       123549                       # number of WriteReq MSHR hits (Count)
system.cpu.dcache.WriteReq.mshrMisses::cpu.data        88038                       # number of WriteReq MSHR misses (Count)
system.cpu.dcache.WriteReq.mshrMisses::total        88038                       # number of WriteReq MSHR misses (Count)
system.cpu.dcache.WriteReq.mshrMissLatency::cpu.data   5115033032                       # number of WriteReq MSHR miss ticks (Tick)
system.cpu.dcache.WriteReq.mshrMissLatency::total   5115033032                       # number of WriteReq MSHR miss ticks (Tick)
system.cpu.dcache.WriteReq.mshrMissRate::cpu.data     0.018869                       # mshr miss rate for WriteReq accesses (Ratio)
system.cpu.dcache.WriteReq.mshrMissRate::total     0.018869                       # mshr miss rate for WriteReq accesses (Ratio)
system.cpu.dcache.WriteReq.avgMshrMissLatency::cpu.data 58100.286604                       # average WriteReq mshr miss latency ((Tick/Count))
system.cpu.dcache.WriteReq.avgMshrMissLatency::total 58100.286604                       # average WriteReq mshr miss latency ((Tick/Count))
system.cpu.dcache.power_state.pwrStateResidencyTicks::UNDEFINED   9151904934                       # Cumulative time (in ticks) in various power states (Tick)
system.cpu.dcache.tags.tagsInUse           510.260867                       # Average ticks per tags in use ((Tick/Count))
system.cpu.dcache.tags.totalRefs             10994174                       # Total number of references to valid blocks. (Count)
system.cpu.dcache.tags.sampledRefs             182322                       # Sample count of references to valid blocks. (Count)
system.cpu.dcache.tags.avgRefs              60.300863                       # Average number of references to valid blocks. ((Count/Count))
system.cpu.dcache.tags.warmupTick              274059                       # The tick when the warmup percentage was hit. (Tick)
system.cpu.dcache.tags.occupancies::cpu.data   510.260867                       # Average occupied blocks per tick, per requestor ((Count/Tick))
system.cpu.dcache.tags.avgOccs::cpu.data     0.996603                       # Average percentage of cache occupancy ((Ratio/Tick))
system.cpu.dcache.tags.avgOccs::total        0.996603                       # Average percentage of cache occupancy ((Ratio/Tick))
system.cpu.dcache.tags.occupanciesTaskId::1024          512                       # Occupied blocks per task id (Count)
system.cpu.dcache.tags.ageTaskId_1024::0          159                       # Occupied blocks per task id, per block age (Count)
system.cpu.dcache.tags.ageTaskId_1024::1          353                       # Occupied blocks per task id, per block age (Count)
system.cpu.dcache.tags.ratioOccsTaskId::1024            1                       # Ratio of occupied blocks and all blocks, per task id (Ratio)
system.cpu.dcache.tags.tagAccesses           91945194                       # Number of tag accesses (Count)
system.cpu.dcache.tags.dataAccesses          91945194                       # Number of data accesses (Count)
system.cpu.dcache.tags.power_state.pwrStateResidencyTicks::UNDEFINED   9151904934                       # Cumulative time (in ticks) in various power states (Tick)
system.cpu.decode.idleCycles                  4876607                       # Number of cycles decode is idle (Cycle)
system.cpu.decode.blockedCycles              14291905                       # Number of cycles decode is blocked (Cycle)
system.cpu.decode.runCycles                   7810049                       # Number of cycles decode is running (Cycle)
system.cpu.decode.unblockCycles                388427                       # Number of cycles decode is unblocking (Cycle)
system.cpu.decode.squashCycles                  36238                       # Number of cycles decode is squashing (Cycle)
system.cpu.decode.branchResolved              2866416                       # Number of times decode resolved a branch (Count)
system.cpu.decode.branchMispred                   474                       # Number of times decode detected a branch misprediction (Count)
system.cpu.decode.decodedInsts               44827421                       # Number of instructions handled by decode (Count)
system.cpu.decode.squashedInsts                  1937                       # Number of squashed instructions handled by decode (Count)
system.cpu.dtb_walker_cache.blockedCycles::no_mshrs            0                       # number of cycles access was blocked (Cycle)
system.cpu.dtb_walker_cache.blockedCycles::no_targets            0                       # number of cycles access was blocked (Cycle)
system.cpu.dtb_walker_cache.blockedCauses::no_mshrs            0                       # number of times access was blocked (Count)
system.cpu.dtb_walker_cache.blockedCauses::no_targets            0                       # number of times access was blocked (Count)
system.cpu.dtb_walker_cache.avgBlocked::no_mshrs          nan                       # average number of cycles each access was blocked ((Cycle/Count))
system.cpu.dtb_walker_cache.avgBlocked::no_targets          nan                       # average number of cycles each access was blocked ((Cycle/Count))
system.cpu.dtb_walker_cache.replacements            0                       # number of replacements (Count)
system.cpu.dtb_walker_cache.power_state.pwrStateResidencyTicks::UNDEFINED   9151904934                       # Cumulative time (in ticks) in various power states (Tick)
system.cpu.dtb_walker_cache.tags.tagsInUse            0                       # Average ticks per tags in use ((Tick/Count))
system.cpu.dtb_walker_cache.tags.totalRefs            0                       # Total number of references to valid blocks. (Count)
system.cpu.dtb_walker_cache.tags.sampledRefs            0                       # Sample count of references to valid blocks. (Count)
system.cpu.dtb_walker_cache.tags.avgRefs          nan                       # Average number of references to valid blocks. ((Count/Count))
system.cpu.dtb_walker_cache.tags.warmupTick            0                       # The tick when the warmup percentage was hit. (Tick)
system.cpu.dtb_walker_cache.tags.tagAccesses            0                       # Number of tag accesses (Count)
system.cpu.dtb_walker_cache.tags.dataAccesses            0                       # Number of data accesses (Count)
system.cpu.dtb_walker_cache.tags.power_state.pwrStateResidencyTicks::UNDEFINED   9151904934                       # Cumulative time (in ticks) in various power states (Tick)
system.cpu.fetch.icacheStallCycles            5444649                       # Number of cycles fetch is stalled on an Icache miss (Cycle)
system.cpu.fetch.insts                       44987209                       # Number of instructions fetch has processed (Count)
system.cpu.fetch.branches                     4702788                       # Number of branches that fetch encountered (Count)
system.cpu.fetch.predictedBranches            3360714                       # Number of branches that fetch has predicted taken (Count)
system.cpu.fetch.cycles                      21921743                       # Number of cycles fetch has run and was not squashing or blocked (Cycle)
system.cpu.fetch.squashCycles                   73390                       # Number of cycles fetch has spent squashing (Cycle)
system.cpu.fetch.miscStallCycles                    9                       # Number of cycles fetch has spent waiting on interrupts, or bad addresses, or out of MSHRs (Cycle)
system.cpu.fetch.pendingTrapStallCycles            11                       # Number of stall cycles due to pending traps (Cycle)
system.cpu.fetch.icacheWaitRetryStallCycles          119                       # Number of stall cycles due to full MSHR (Cycle)
system.cpu.fetch.cacheLines                   5416341                       # Number of cache lines fetched (Count)
system.cpu.fetch.icacheSquashes                 23181                       # Number of outstanding Icache misses that were squashed (Count)
system.cpu.fetch.nisnDist::samples           27403226                       # Number of instructions fetched each cycle (Total) (Count)
system.cpu.fetch.nisnDist::mean              1.641682                       # Number of instructions fetched each cycle (Total) (Count)
system.cpu.fetch.nisnDist::stdev             2.828829                       # Number of instructions fetched each cycle (Total) (Count)
system.cpu.fetch.nisnDist::underflows               0      0.00%      0.00% # Number of instructions fetched each cycle (Total) (Count)
system.cpu.fetch.nisnDist::0                 18665458     68.11%     68.11% # Number of instructions fetched each cycle (Total) (Count)
system.cpu.fetch.nisnDist::1                   560284      2.04%     70.16% # Number of instructions fetched each cycle (Total) (Count)
system.cpu.fetch.nisnDist::2                  1730534      6.32%     76.47% # Number of instructions fetched each cycle (Total) (Count)
system.cpu.fetch.nisnDist::3                   546756      2.00%     78.47% # Number of instructions fetched each cycle (Total) (Count)
system.cpu.fetch.nisnDist::4                  1638773      5.98%     84.45% # Number of instructions fetched each cycle (Total) (Count)
system.cpu.fetch.nisnDist::5                   206087      0.75%     85.20% # Number of instructions fetched each cycle (Total) (Count)
system.cpu.fetch.nisnDist::6                   181216      0.66%     85.86% # Number of instructions fetched each cycle (Total) (Count)
system.cpu.fetch.nisnDist::7                   339994      1.24%     87.10% # Number of instructions fetched each cycle (Total) (Count)
system.cpu.fetch.nisnDist::8                  3534124     12.90%    100.00% # Number of instructions fetched each cycle (Total) (Count)
system.cpu.fetch.nisnDist::overflows                0      0.00%    100.00% # Number of instructions fetched each cycle (Total) (Count)
system.cpu.fetch.nisnDist::min_value                0                       # Number of instructions fetched each cycle (Total) (Count)
system.cpu.fetch.nisnDist::max_value                8                       # Number of instructions fetched each cycle (Total) (Count)
system.cpu.fetch.nisnDist::total             27403226                       # Number of instructions fetched each cycle (Total) (Count)
system.cpu.fetch.branchRate                  0.171115                       # Number of branch fetches per cycle (Ratio)
system.cpu.fetch.rate                        1.636899                       # Number of inst fetches per cycle ((Count/Cycle))
system.cpu.icache.demandHits::cpu.inst        5415525                       # number of demand (read+write) hits (Count)
system.cpu.icache.demandHits::total           5415525                       # number of demand (read+write) hits (Count)
system.cpu.icache.overallHits::cpu.inst       5415525                       # number of overall hits (Count)
system.cpu.icache.overallHits::total          5415525                       # number of overall hits (Count)
system.cpu.icache.demandMisses::cpu.inst          816                       # number of demand (read+write) misses (Count)
system.cpu.icache.demandMisses::total             816                       # number of demand (read+write) misses (Count)
system.cpu.icache.overallMisses::cpu.inst          816                       # number of overall misses (Count)
system.cpu.icache.overallMisses::total            816                       # number of overall misses (Count)
system.cpu.icache.demandMissLatency::cpu.inst     68033897                       # number of demand (read+write) miss ticks (Tick)
system.cpu.icache.demandMissLatency::total     68033897                       # number of demand (read+write) miss ticks (Tick)
system.cpu.icache.overallMissLatency::cpu.inst     68033897                       # number of overall miss ticks (Tick)
system.cpu.icache.overallMissLatency::total     68033897                       # number of overall miss ticks (Tick)
system.cpu.icache.demandAccesses::cpu.inst      5416341                       # number of demand (read+write) accesses (Count)
system.cpu.icache.demandAccesses::total       5416341                       # number of demand (read+write) accesses (Count)
system.cpu.icache.overallAccesses::cpu.inst      5416341                       # number of overall (read+write) accesses (Count)
system.cpu.icache.overallAccesses::total      5416341                       # number of overall (read+write) accesses (Count)
system.cpu.icache.demandMissRate::cpu.inst     0.000151                       # miss rate for demand accesses (Ratio)
system.cpu.icache.demandMissRate::total      0.000151                       # miss rate for demand accesses (Ratio)
system.cpu.icache.overallMissRate::cpu.inst     0.000151                       # miss rate for overall accesses (Ratio)
system.cpu.icache.overallMissRate::total     0.000151                       # miss rate for overall accesses (Ratio)
system.cpu.icache.demandAvgMissLatency::cpu.inst 83374.873775                       # average overall miss latency in ticks ((Tick/Count))
system.cpu.icache.demandAvgMissLatency::total 83374.873775                       # average overall miss latency in ticks ((Tick/Count))
system.cpu.icache.overallAvgMissLatency::cpu.inst 83374.873775                       # average overall miss latency ((Tick/Count))
system.cpu.icache.overallAvgMissLatency::total 83374.873775                       # average overall miss latency ((Tick/Count))
system.cpu.icache.blockedCycles::no_mshrs         1861                       # number of cycles access was blocked (Cycle)
system.cpu.icache.blockedCycles::no_targets            0                       # number of cycles access was blocked (Cycle)
system.cpu.icache.blockedCauses::no_mshrs           16                       # number of times access was blocked (Count)
system.cpu.icache.blockedCauses::no_targets            0                       # number of times access was blocked (Count)
system.cpu.icache.avgBlocked::no_mshrs     116.312500                       # average number of cycles each access was blocked ((Cycle/Count))
system.cpu.icache.avgBlocked::no_targets          nan                       # average number of cycles each access was blocked ((Cycle/Count))
system.cpu.icache.writebacks::writebacks          108                       # number of writebacks (Count)
system.cpu.icache.writebacks::total               108                       # number of writebacks (Count)
system.cpu.icache.demandMshrHits::cpu.inst          225                       # number of demand (read+write) MSHR hits (Count)
system.cpu.icache.demandMshrHits::total           225                       # number of demand (read+write) MSHR hits (Count)
system.cpu.icache.overallMshrHits::cpu.inst          225                       # number of overall MSHR hits (Count)
system.cpu.icache.overallMshrHits::total          225                       # number of overall MSHR hits (Count)
system.cpu.icache.demandMshrMisses::cpu.inst          591                       # number of demand (read+write) MSHR misses (Count)
system.cpu.icache.demandMshrMisses::total          591                       # number of demand (read+write) MSHR misses (Count)
system.cpu.icache.overallMshrMisses::cpu.inst          591                       # number of overall MSHR misses (Count)
system.cpu.icache.overallMshrMisses::total          591                       # number of overall MSHR misses (Count)
system.cpu.icache.demandMshrMissLatency::cpu.inst     52074872                       # number of demand (read+write) MSHR miss ticks (Tick)
system.cpu.icache.demandMshrMissLatency::total     52074872                       # number of demand (read+write) MSHR miss ticks (Tick)
system.cpu.icache.overallMshrMissLatency::cpu.inst     52074872                       # number of overall MSHR miss ticks (Tick)
system.cpu.icache.overallMshrMissLatency::total     52074872                       # number of overall MSHR miss ticks (Tick)
system.cpu.icache.demandMshrMissRate::cpu.inst     0.000109                       # mshr miss ratio for demand accesses (Ratio)
system.cpu.icache.demandMshrMissRate::total     0.000109                       # mshr miss ratio for demand accesses (Ratio)
system.cpu.icache.overallMshrMissRate::cpu.inst     0.000109                       # mshr miss ratio for overall accesses (Ratio)
system.cpu.icache.overallMshrMissRate::total     0.000109                       # mshr miss ratio for overall accesses (Ratio)
system.cpu.icache.demandAvgMshrMissLatency::cpu.inst 88113.150592                       # average overall mshr miss latency ((Tick/Count))
system.cpu.icache.demandAvgMshrMissLatency::total 88113.150592                       # average overall mshr miss latency ((Tick/Count))
system.cpu.icache.overallAvgMshrMissLatency::cpu.inst 88113.150592                       # average overall mshr miss latency ((Tick/Count))
system.cpu.icache.overallAvgMshrMissLatency::total 88113.150592                       # average overall mshr miss latency ((Tick/Count))
system.cpu.icache.replacements                    108                       # number of replacements (Count)
system.cpu.icache.ReadReq.hits::cpu.inst      5415525                       # number of ReadReq hits (Count)
system.cpu.icache.ReadReq.hits::total         5415525                       # number of ReadReq hits (Count)
system.cpu.icache.ReadReq.misses::cpu.inst          816                       # number of ReadReq misses (Count)
system.cpu.icache.ReadReq.misses::total           816                       # number of ReadReq misses (Count)
system.cpu.icache.ReadReq.missLatency::cpu.inst     68033897                       # number of ReadReq miss ticks (Tick)
system.cpu.icache.ReadReq.missLatency::total     68033897                       # number of ReadReq miss ticks (Tick)
system.cpu.icache.ReadReq.accesses::cpu.inst      5416341                       # number of ReadReq accesses(hits+misses) (Count)
system.cpu.icache.ReadReq.accesses::total      5416341                       # number of ReadReq accesses(hits+misses) (Count)
system.cpu.icache.ReadReq.missRate::cpu.inst     0.000151                       # miss rate for ReadReq accesses (Ratio)
system.cpu.icache.ReadReq.missRate::total     0.000151                       # miss rate for ReadReq accesses (Ratio)
system.cpu.icache.ReadReq.avgMissLatency::cpu.inst 83374.873775                       # average ReadReq miss latency ((Tick/Count))
system.cpu.icache.ReadReq.avgMissLatency::total 83374.873775                       # average ReadReq miss latency ((Tick/Count))
system.cpu.icache.ReadReq.mshrHits::cpu.inst          225                       # number of ReadReq MSHR hits (Count)
system.cpu.icache.ReadReq.mshrHits::total          225                       # number of ReadReq MSHR hits (Count)
system.cpu.icache.ReadReq.mshrMisses::cpu.inst          591                       # number of ReadReq MSHR misses (Count)
system.cpu.icache.ReadReq.mshrMisses::total          591                       # number of ReadReq MSHR misses (Count)
system.cpu.icache.ReadReq.mshrMissLatency::cpu.inst     52074872                       # number of ReadReq MSHR miss ticks (Tick)
system.cpu.icache.ReadReq.mshrMissLatency::total     52074872                       # number of ReadReq MSHR miss ticks (Tick)
system.cpu.icache.ReadReq.mshrMissRate::cpu.inst     0.000109                       # mshr miss rate for ReadReq accesses (Ratio)
system.cpu.icache.ReadReq.mshrMissRate::total     0.000109                       # mshr miss rate for ReadReq accesses (Ratio)
system.cpu.icache.ReadReq.avgMshrMissLatency::cpu.inst 88113.150592                       # average ReadReq mshr miss latency ((Tick/Count))
system.cpu.icache.ReadReq.avgMshrMissLatency::total 88113.150592                       # average ReadReq mshr miss latency ((Tick/Count))
system.cpu.icache.power_state.pwrStateResidencyTicks::UNDEFINED   9151904934                       # Cumulative time (in ticks) in various power states (Tick)
system.cpu.icache.tags.tagsInUse           406.349445                       # Average ticks per tags in use ((Tick/Count))
system.cpu.icache.tags.totalRefs              5416116                       # Total number of references to valid blocks. (Count)
system.cpu.icache.tags.sampledRefs                591                       # Sample count of references to valid blocks. (Count)
system.cpu.icache.tags.avgRefs            9164.324873                       # Average number of references to valid blocks. ((Count/Count))
system.cpu.icache.tags.warmupTick               92241                       # The tick when the warmup percentage was hit. (Tick)
system.cpu.icache.tags.occupancies::cpu.inst   406.349445                       # Average occupied blocks per tick, per requestor ((Count/Tick))
system.cpu.icache.tags.avgOccs::cpu.inst     0.793651                       # Average percentage of cache occupancy ((Ratio/Tick))
system.cpu.icache.tags.avgOccs::total        0.793651                       # Average percentage of cache occupancy ((Ratio/Tick))
system.cpu.icache.tags.occupanciesTaskId::1024          483                       # Occupied blocks per task id (Count)
system.cpu.icache.tags.ageTaskId_1024::0          105                       # Occupied blocks per task id, per block age (Count)
system.cpu.icache.tags.ageTaskId_1024::1            3                       # Occupied blocks per task id, per block age (Count)
system.cpu.icache.tags.ageTaskId_1024::3          375                       # Occupied blocks per task id, per block age (Count)
system.cpu.icache.tags.ratioOccsTaskId::1024     0.943359                       # Ratio of occupied blocks and all blocks, per task id (Ratio)
system.cpu.icache.tags.tagAccesses           43331319                       # Number of tag accesses (Count)
system.cpu.icache.tags.dataAccesses          43331319                       # Number of data accesses (Count)
system.cpu.icache.tags.power_state.pwrStateResidencyTicks::UNDEFINED   9151904934                       # Cumulative time (in ticks) in various power states (Tick)
system.cpu.iew.idleCycles                           0                       # Number of cycles IEW is idle (Cycle)
system.cpu.iew.squashCycles                     36238                       # Number of cycles IEW is squashing (Cycle)
[...]
system.mem_ctrls.dram.perBankRdBursts::13         3096                       # Per bank write bursts (Count)
system.mem_ctrls.dram.perBankRdBursts::14         3177                       # Per bank write bursts (Count)
system.mem_ctrls.dram.perBankRdBursts::15         3084                       # Per bank write bursts (Count)
system.mem_ctrls.dram.perBankWrBursts::0            0                       # Per bank write bursts (Count)
system.mem_ctrls.dram.perBankWrBursts::1            0                       # Per bank write bursts (Count)
system.mem_ctrls.dram.perBankWrBursts::2            0                       # Per bank write bursts (Count)
system.mem_ctrls.dram.perBankWrBursts::3            0                       # Per bank write bursts (Count)
system.mem_ctrls.dram.perBankWrBursts::4            0                       # Per bank write bursts (Count)
system.mem_ctrls.dram.perBankWrBursts::5            0                       # Per bank write bursts (Count)
system.mem_ctrls.dram.perBankWrBursts::6            0                       # Per bank write bursts (Count)
system.mem_ctrls.dram.perBankWrBursts::7            0                       # Per bank write bursts (Count)
system.mem_ctrls.dram.perBankWrBursts::8            0                       # Per bank write bursts (Count)
system.mem_ctrls.dram.perBankWrBursts::9            0                       # Per bank write bursts (Count)
system.mem_ctrls.dram.perBankWrBursts::10            0                       # Per bank write bursts (Count)
system.mem_ctrls.dram.perBankWrBursts::11            0                       # Per bank write bursts (Count)
system.mem_ctrls.dram.perBankWrBursts::12            0                       # Per bank write bursts (Count)
system.mem_ctrls.dram.perBankWrBursts::13            0                       # Per bank write bursts (Count)
system.mem_ctrls.dram.perBankWrBursts::14            0                       # Per bank write bursts (Count)
system.mem_ctrls.dram.perBankWrBursts::15            0                       # Per bank write bursts (Count)
system.mem_ctrls.dram.totQLat               663892653                       # Total ticks spent queuing (Tick)
system.mem_ctrls.dram.totBusLat             251970000                       # Total ticks spent in databus transfers (Tick)
system.mem_ctrls.dram.totMemAccLat         1608780153                       # Total ticks spent from burst creation until serviced by the DRAM (Tick)
system.mem_ctrls.dram.avgQLat                13174.04                       # Average queueing delay per DRAM burst ((Tick/Count))
system.mem_ctrls.dram.avgBusLat               5000.00                       # Average bus latency per DRAM burst ((Tick/Count))
system.mem_ctrls.dram.avgMemAccLat           31924.04                       # Average memory access latency per DRAM burst ((Tick/Count))
system.mem_ctrls.dram.readRowHits               31422                       # Number of row buffer hits during reads (Count)
system.mem_ctrls.dram.writeRowHits                  0                       # Number of row buffer hits during writes (Count)
system.mem_ctrls.dram.readRowHitRate            62.35                       # Row buffer hit rate for reads (Ratio)
system.mem_ctrls.dram.writeRowHitRate             nan                       # Row buffer hit rate for writes (Ratio)
system.mem_ctrls.dram.bytesPerActivate::samples        18961                       # Bytes accessed per row activation (Byte)
system.mem_ctrls.dram.bytesPerActivate::mean   169.979221                       # Bytes accessed per row activation (Byte)
system.mem_ctrls.dram.bytesPerActivate::gmean    90.342603                       # Bytes accessed per row activation (Byte)
system.mem_ctrls.dram.bytesPerActivate::stdev   286.333389                       # Bytes accessed per row activation (Byte)
system.mem_ctrls.dram.bytesPerActivate::0-127        16074     84.77%     84.77% # Bytes accessed per row activation (Byte)
system.mem_ctrls.dram.bytesPerActivate::128-255          495      2.61%     87.38% # Bytes accessed per row activation (Byte)
system.mem_ctrls.dram.bytesPerActivate::256-383          151      0.80%     88.18% # Bytes accessed per row activation (Byte)
system.mem_ctrls.dram.bytesPerActivate::384-511          113      0.60%     88.78% # Bytes accessed per row activation (Byte)
system.mem_ctrls.dram.bytesPerActivate::512-639          189      1.00%     89.77% # Bytes accessed per row activation (Byte)
system.mem_ctrls.dram.bytesPerActivate::640-767           92      0.49%     90.26% # Bytes accessed per row activation (Byte)
system.mem_ctrls.dram.bytesPerActivate::768-895           73      0.39%     90.64% # Bytes accessed per row activation (Byte)
system.mem_ctrls.dram.bytesPerActivate::896-1023           60      0.32%     90.96% # Bytes accessed per row activation (Byte)
system.mem_ctrls.dram.bytesPerActivate::1024-1151         1714      9.04%    100.00% # Bytes accessed per row activation (Byte)
system.mem_ctrls.dram.bytesPerActivate::total        18961                       # Bytes accessed per row activation (Byte)
system.mem_ctrls.dram.bytesRead               3225216                       # Total bytes read (Byte)
system.mem_ctrls.dram.bytesWritten                  0                       # Total bytes written (Byte)
system.mem_ctrls.dram.avgRdBW              352.409255                       # Average DRAM read bandwidth in MiBytes/s ((Byte/Second))
system.mem_ctrls.dram.avgWrBW                       0                       # Average DRAM write bandwidth in MiBytes/s ((Byte/Second))
system.mem_ctrls.dram.peakBW                 12800.00                       # Theoretical peak bandwidth in MiByte/s ((Byte/Second))
system.mem_ctrls.dram.busUtil                    2.75                       # Data bus utilization in percentage (Ratio)
system.mem_ctrls.dram.busUtilRead                2.75                       # Data bus utilization in percentage for reads (Ratio)
system.mem_ctrls.dram.busUtilWrite               0.00                       # Data bus utilization in percentage for writes (Ratio)
system.mem_ctrls.dram.pageHitRate               62.35                       # Row buffer hit rate, read and write combined (Ratio)
system.mem_ctrls.dram.power_state.pwrStateResidencyTicks::UNDEFINED   9151904934                       # Cumulative time (in ticks) in various power states (Tick)
system.mem_ctrls.dram.rank0.actEnergy        68122740                       # Energy for activate commands per rank (pJ) (Joule)
system.mem_ctrls.dram.rank0.preEnergy        36189120                       # Energy for precharge commands per rank (pJ) (Joule)
system.mem_ctrls.dram.rank0.readEnergy      181298880                       # Energy for read commands per rank (pJ) (Joule)
system.mem_ctrls.dram.rank0.writeEnergy             0                       # Energy for write commands per rank (pJ) (Joule)
system.mem_ctrls.dram.rank0.refreshEnergy 722202000.000000                       # Energy for refresh commands per rank (pJ) (Joule)
system.mem_ctrls.dram.rank0.actBackEnergy   1561972140                       # Energy for active background per rank (pJ) (Joule)
system.mem_ctrls.dram.rank0.preBackEnergy   2198986560                       # Energy for precharge background per rank (pJ) (Joule)
system.mem_ctrls.dram.rank0.actPowerDownEnergy            0                       # Energy for active power-down per rank (pJ) (Joule)
system.mem_ctrls.dram.rank0.prePowerDownEnergy            0                       # Energy for precharge power-down per rank (pJ) (Joule)
system.mem_ctrls.dram.rank0.selfRefreshEnergy            0                       # Energy for self refresh per rank (pJ) (Joule)
system.mem_ctrls.dram.rank0.totalEnergy    4768771440                       # Total energy per rank (pJ) (Joule)
system.mem_ctrls.dram.rank0.averagePower   521.068726                       # Core power per rank (mW) (Watt)
system.mem_ctrls.dram.rank0.totalIdleTime            0                       # Total Idle time Per DRAM Rank (Tick)
system.mem_ctrls.dram.rank0.pwrStateTime::IDLE   5693951287                       # Time in different power states (Tick)
system.mem_ctrls.dram.rank0.pwrStateTime::REF    305500000                       # Time in different power states (Tick)
system.mem_ctrls.dram.rank0.pwrStateTime::SREF            0                       # Time in different power states (Tick)
system.mem_ctrls.dram.rank0.pwrStateTime::PRE_PDN            0                       # Time in different power states (Tick)
system.mem_ctrls.dram.rank0.pwrStateTime::ACT   3152453647                       # Time in different power states (Tick)
system.mem_ctrls.dram.rank0.pwrStateTime::ACT_PDN            0                       # Time in different power states (Tick)
system.mem_ctrls.dram.rank1.actEnergy        67337340                       # Energy for activate commands per rank (pJ) (Joule)
system.mem_ctrls.dram.rank1.preEnergy        35767875                       # Energy for precharge commands per rank (pJ) (Joule)
system.mem_ctrls.dram.rank1.readEnergy      178514280                       # Energy for read commands per rank (pJ) (Joule)
system.mem_ctrls.dram.rank1.writeEnergy             0                       # Energy for write commands per rank (pJ) (Joule)
system.mem_ctrls.dram.rank1.refreshEnergy 722202000.000000                       # Energy for refresh commands per rank (pJ) (Joule)
system.mem_ctrls.dram.rank1.actBackEnergy   1549706310                       # Energy for active background per rank (pJ) (Joule)
system.mem_ctrls.dram.rank1.preBackEnergy   2209315680                       # Energy for precharge background per rank (pJ) (Joule)
system.mem_ctrls.dram.rank1.actPowerDownEnergy            0                       # Energy for active power-down per rank (pJ) (Joule)
system.mem_ctrls.dram.rank1.prePowerDownEnergy            0                       # Energy for precharge power-down per rank (pJ) (Joule)
system.mem_ctrls.dram.rank1.selfRefreshEnergy            0                       # Energy for self refresh per rank (pJ) (Joule)
system.mem_ctrls.dram.rank1.totalEnergy    4762843485                       # Total energy per rank (pJ) (Joule)
system.mem_ctrls.dram.rank1.averagePower   520.420996                       # Core power per rank (mW) (Watt)
system.mem_ctrls.dram.rank1.totalIdleTime            0                       # Total Idle time Per DRAM Rank (Tick)
system.mem_ctrls.dram.rank1.pwrStateTime::IDLE   5721529340                       # Time in different power states (Tick)
system.mem_ctrls.dram.rank1.pwrStateTime::REF    305500000                       # Time in different power states (Tick)
system.mem_ctrls.dram.rank1.pwrStateTime::SREF            0                       # Time in different power states (Tick)
system.mem_ctrls.dram.rank1.pwrStateTime::PRE_PDN            0                       # Time in different power states (Tick)
system.mem_ctrls.dram.rank1.pwrStateTime::ACT   3124875594                       # Time in different power states (Tick)
system.mem_ctrls.dram.rank1.pwrStateTime::ACT_PDN            0                       # Time in different power states (Tick)
system.mem_ctrls.power_state.pwrStateResidencyTicks::UNDEFINED   9151904934                       # Cumulative time (in ticks) in various power states (Tick)
system.membus.transDist::ReadResp                 787                       # Transaction distribution (Count)
system.membus.transDist::ReadExReq              49607                       # Transaction distribution (Count)
system.membus.transDist::ReadExResp             49607                       # Transaction distribution (Count)
system.membus.transDist::ReadSharedReq            787                       # Transaction distribution (Count)
system.membus.transDist::InvalidateReq              3                       # Transaction distribution (Count)
system.membus.pktCount_system.l3.mem_side_port::system.mem_ctrls.port       100791                       # Packet count per connected requestor and responder (Count)
system.membus.pktCount::total                  100791                       # Packet count per connected requestor and responder (Count)
system.membus.pktSize_system.l3.mem_side_port::system.mem_ctrls.port      3225216                       # Cumulative packet size per connected requestor and responder (Byte)
system.membus.pktSize::total                  3225216                       # Cumulative packet size per connected requestor and responder (Byte)
system.membus.snoops                                0                       # Total snoops (Count)
system.membus.snoopTraffic                          0                       # Total snoop traffic (Byte)
system.membus.snoopFanout::samples              50397                       # Request fanout histogram (Count)
system.membus.snoopFanout::mean                     0                       # Request fanout histogram (Count)
system.membus.snoopFanout::stdev                    0                       # Request fanout histogram (Count)
system.membus.snoopFanout::underflows               0      0.00%      0.00% # Request fanout histogram (Count)
system.membus.snoopFanout::0                    50397    100.00%    100.00% # Request fanout histogram (Count)
system.membus.snoopFanout::1                        0      0.00%    100.00% # Request fanout histogram (Count)
system.membus.snoopFanout::overflows                0      0.00%    100.00% # Request fanout histogram (Count)
system.membus.snoopFanout::min_value                0                       # Request fanout histogram (Count)
system.membus.snoopFanout::max_value                0                       # Request fanout histogram (Count)
system.membus.snoopFanout::total                50397                       # Request fanout histogram (Count)
system.membus.power_state.pwrStateResidencyTicks::UNDEFINED   9151904934                       # Cumulative time (in ticks) in various power states (Tick)
system.membus.reqLayer0.occupancy            77031681                       # Layer occupancy (ticks) (Tick)
system.membus.reqLayer0.utilization               0.0                       # Layer utilization (Ratio)
system.membus.respLayer1.occupancy          272502990                       # Layer occupancy (ticks) (Tick)
system.membus.respLayer1.utilization              0.0                       # Layer utilization (Ratio)
system.membus.snoop_filter.totRequests          50397                       # Total number of requests made to the snoop filter. (Count)
system.membus.snoop_filter.hitSingleRequests            0                       # Number of requests hitting in the snoop filter with a single holder of the requested data. (Count)
system.membus.snoop_filter.hitMultiRequests            0                       # Number of requests hitting in the snoop filter with multiple (>1) holders of the requested data. (Count)
system.membus.snoop_filter.totSnoops                0                       # Total number of snoops made to the snoop filter. (Count)
system.membus.snoop_filter.hitSingleSnoops            0                       # Number of snoops hitting in the snoop filter with a single holder of the requested data. (Count)
system.membus.snoop_filter.hitMultiSnoops            0                       # Number of snoops hitting in the snoop filter with multiple (>1) holders of the requested data. (Count)
system.tol3bus.transDist::ReadResp              47990                       # Transaction distribution (Count)
system.tol3bus.transDist::WritebackDirty        81199                       # Transaction distribution (Count)
system.tol3bus.transDist::CleanEvict              313                       # Transaction distribution (Count)
system.tol3bus.transDist::ReadExReq             66599                       # Transaction distribution (Count)
system.tol3bus.transDist::ReadExResp            66599                       # Transaction distribution (Count)
system.tol3bus.transDist::ReadSharedReq         47990                       # Transaction distribution (Count)
system.tol3bus.transDist::InvalidateReq             6                       # Transaction distribution (Count)
system.tol3bus.transDist::InvalidateResp            6                       # Transaction distribution (Count)
system.tol3bus.pktCount_system.cpu.l2cache.mem_side_port::system.l3.cpu_side_port       310702                       # Packet count per connected requestor and responder (Count)
system.tol3bus.pktSize_system.cpu.l2cache.mem_side_port::system.l3.cpu_side_port     12530432                       # Cumulative packet size per connected requestor and responder (Byte)
system.tol3bus.snoops                               0                       # Total snoops (Count)
system.tol3bus.snoopTraffic                         0                       # Total snoop traffic (Byte)
system.tol3bus.snoopFanout::samples            114595                       # Request fanout histogram (Count)
system.tol3bus.snoopFanout::mean                    0                       # Request fanout histogram (Count)
system.tol3bus.snoopFanout::stdev                   0                       # Request fanout histogram (Count)
system.tol3bus.snoopFanout::underflows              0      0.00%      0.00% # Request fanout histogram (Count)
system.tol3bus.snoopFanout::0                  114595    100.00%    100.00% # Request fanout histogram (Count)
system.tol3bus.snoopFanout::1                       0      0.00%    100.00% # Request fanout histogram (Count)
system.tol3bus.snoopFanout::overflows               0      0.00%    100.00% # Request fanout histogram (Count)
system.tol3bus.snoopFanout::min_value               0                       # Request fanout histogram (Count)
system.tol3bus.snoopFanout::max_value               0                       # Request fanout histogram (Count)
system.tol3bus.snoopFanout::total              114595                       # Request fanout histogram (Count)
system.tol3bus.power_state.pwrStateResidencyTicks::UNDEFINED   9151904934                       # Cumulative time (in ticks) in various power states (Tick)
system.tol3bus.reqLayer0.occupancy          119382165                       # Layer occupancy (ticks) (Tick)
system.tol3bus.reqLayer0.utilization              0.0                       # Layer utilization (Ratio)
system.tol3bus.respLayer0.occupancy         114476409                       # Layer occupancy (ticks) (Tick)
system.tol3bus.respLayer0.utilization             0.0                       # Layer utilization (Ratio)
system.tol3bus.snoop_filter.totRequests        196107                       # Total number of requests made to the snoop filter. (Count)
system.tol3bus.snoop_filter.hitSingleRequests        81512                       # Number of requests hitting in the snoop filter with a single holder of the requested data. (Count)
system.tol3bus.snoop_filter.hitMultiRequests            0                       # Number of requests hitting in the snoop filter with multiple (>1) holders of the requested data. (Count)
system.tol3bus.snoop_filter.totSnoops               0                       # Total number of snoops made to the snoop filter. (Count)
system.tol3bus.snoop_filter.hitSingleSnoops            0                       # Number of snoops hitting in the snoop filter with a single holder of the requested data. (Count)
system.tol3bus.snoop_filter.hitMultiSnoops            0                       # Number of snoops hitting in the snoop filter with multiple (>1) holders of the requested data. (Count)
system.voltage_domain.voltage                       1                       # Voltage in Volts (Volt)
system.workload.inst.arm                            0                       # number of arm instructions executed (Count)
system.workload.inst.quiesce                        0                       # number of quiesce instructions executed (Count)

---------- End Simulation Statistics   ----------
