
---------- Begin Simulation Statistics ----------
simSeconds                                   0.049522                       # Number of seconds simulated (Second)
simTicks                                  49522465296                       # Number of ticks simulated (Tick)
finalTick                                 49522465296                       # Number of ticks from beginning of simulation (restored from checkpoints and never reset) (Tick)
simFreq                                  1000000000000                       # The number of ticks per simulated second ((Tick/Second))
hostSeconds                                    731.60                       # Real time elapsed on the host (Second)
hostTickRate                                 67690254                       # The number of ticks simulated per host second (ticks/s) ((Tick/Second))
hostMemory                                     802344                       # Number of bytes of host memory used (Byte)
simInsts                                    417347895                       # Number of instructions simulated (Count)
simOps                                      417349938                       # Number of ops (including micro ops) simulated (Count)
hostInstRate                                   570456                       # Simulator instruction rate (inst/s) ((Count/Second))
hostOpRate                                     570458                       # Simulator op (including micro ops) rate (op/s) ((Count/Second))
system.clk_domain.clock                          1000                       # Clock period in ticks (Tick)
system.cpu0.numCycles                       142277553                       # Number of cpu cycles simulated (Cycle)
system.cpu0.numWorkItemsStarted                     0                       # Number of work items this cpu started (Count)
system.cpu0.numWorkItemsCompleted                   0                       # Number of work items this cpu completed (Count)
system.cpu0.instsAdded                      130881222                       # Number of instructions added to the IQ (excludes non-spec) (Count)
system.cpu0.nonSpecInstsAdded                    2952                       # Number of non-speculative instructions added to the IQ (Count)
system.cpu0.instsIssued                     130031571                       # Number of instructions issued (Count)
system.cpu0.squashedInstsIssued                  5055                       # Number of squashed instructions issued (Count)
system.cpu0.squashedInstsExamined             1232003                       # Number of squashed instructions iterated over during squash; mainly for profiling (Count)
system.cpu0.squashedOperandsExamined          1014737                       # Number of squashed operands that are examined and possibly removed from graph (Count)
system.cpu0.squashedNonSpecRemoved                543                       # Number of squashed non-spec instructions that were removed (Count)
system.cpu0.numIssuedDist::samples          142186773                       # Number of insts issued each cycle (Count)
system.cpu0.numIssuedDist::mean              0.914512                       # Number of insts issued each cycle (Count)
system.cpu0.numIssuedDist::stdev             1.163244                       # Number of insts issued each cycle (Count)
system.cpu0.numIssuedDist::underflows               0      0.00%      0.00% # Number of insts issued each cycle (Count)
system.cpu0.numIssuedDist::0                 68083766     47.88%     47.88% # Number of insts issued each cycle (Count)
system.cpu0.numIssuedDist::1                 41146911     28.94%     76.82% # Number of insts issued each cycle (Count)
system.cpu0.numIssuedDist::2                 16925513     11.90%     88.73% # Number of insts issued each cycle (Count)
system.cpu0.numIssuedDist::3                 12162094      8.55%     97.28% # Number of insts issued each cycle (Count)
system.cpu0.numIssuedDist::4                  1896716      1.33%     98.61% # Number of insts issued each cycle (Count)
system.cpu0.numIssuedDist::5                  1358520      0.96%     99.57% # Number of insts issued each cycle (Count)
system.cpu0.numIssuedDist::6                   259581      0.18%     99.75% # Number of insts issued each cycle (Count)
system.cpu0.numIssuedDist::7                   218974      0.15%     99.91% # Number of insts issued each cycle (Count)
system.cpu0.numIssuedDist::8                   134698      0.09%    100.00% # Number of insts issued each cycle (Count)
system.cpu0.numIssuedDist::overflows                0      0.00%    100.00% # Number of insts issued each cycle (Count)
system.cpu0.numIssuedDist::min_value                0                       # Number of insts issued each cycle (Count)
system.cpu0.numIssuedDist::max_value                8                       # Number of insts issued each cycle (Count)
system.cpu0.numIssuedDist::total            142186773                       # Number of insts issued each cycle (Count)
system.cpu0.statFuBusy::No_OpClass                  0      0.00%      0.00% # attempts to use FU when none available (Count)
system.cpu0.statFuBusy::IntAlu                  18316      0.05%      0.05% # attempts to use FU when none available (Count)
system.cpu0.statFuBusy::IntMult              12919413     37.52%     37.57% # attempts to use FU when none available (Count)
system.cpu0.statFuBusy::IntDiv               20982990     60.93%     98.50% # attempts to use FU when none available (Count)
system.cpu0.statFuBusy::FloatAdd                   18      0.00%     98.50% # attempts to use FU when none available (Count)
system.cpu0.statFuBusy::FloatCmp                    0      0.00%     98.50% # attempts to use FU when none available (Count)
system.cpu0.statFuBusy::FloatCvt                    0      0.00%     98.50% # attempts to use FU when none available (Count)
system.cpu0.statFuBusy::FloatMult               31011      0.09%     98.59% # attempts to use FU when none available (Count)
system.cpu0.statFuBusy::FloatMultAcc                0      0.00%     98.59% # attempts to use FU when none available (Count)
system.cpu0.statFuBusy::FloatDiv                 9081      0.03%     98.62% # attempts to use FU when none available (Count)
system.cpu0.statFuBusy::FloatMisc                1292      0.00%     98.62% # attempts to use FU when none available (Count)
system.cpu0.statFuBusy::FloatSqrt                   0      0.00%     98.62% # attempts to use FU when none available (Count)
system.cpu0.statFuBusy::SimdAdd                     0      0.00%     98.62% # attempts to use FU when none available (Count)
system.cpu0.statFuBusy::SimdAddAcc                  0      0.00%     98.62% # attempts to use FU when none available (Count)
system.cpu0.statFuBusy::SimdAlu                     0      0.00%     98.62% # attempts to use FU when none available (Count)
system.cpu0.statFuBusy::SimdCmp                     0      0.00%     98.62% # attempts to use FU when none available (Count)
system.cpu0.statFuBusy::SimdCvt                     0      0.00%     98.62% # attempts to use FU when none available (Count)
system.cpu0.statFuBusy::SimdMisc                    0      0.00%     98.62% # attempts to use FU when none available (Count)
system.cpu0.statFuBusy::SimdMult                    0      0.00%     98.62% # attempts to use FU when none available (Count)
system.cpu0.statFuBusy::SimdMultAcc                 0      0.00%     98.62% # attempts to use FU when none available (Count)
system.cpu0.statFuBusy::SimdShift                   0      0.00%     98.62% # attempts to use FU when none available (Count)
system.cpu0.statFuBusy::SimdShiftAcc                0      0.00%     98.62% # attempts to use FU when none available (Count)
system.cpu0.statFuBusy::SimdDiv                     0      0.00%     98.62% # attempts to use FU when none available (Count)
system.cpu0.statFuBusy::SimdSqrt                    0      0.00%     98.62% # attempts to use FU when none available (Count)
system.cpu0.statFuBusy::SimdFloatAdd                0      0.00%     98.62% # attempts to use FU when none available (Count)
system.cpu0.statFuBusy::SimdFloatAlu                0      0.00%     98.62% # attempts to use FU when none available (Count)
system.cpu0.statFuBusy::SimdFloatCmp                0      0.00%     98.62% # attempts to use FU when none available (Count)
system.cpu0.statFuBusy::SimdFloatCvt                0      0.00%     98.62% # attempts to use FU when none available (Count)
system.cpu0.statFuBusy::SimdFloatDiv                0      0.00%     98.62% # attempts to use FU when none available (Count)
system.cpu0.statFuBusy::SimdFloatMisc               0      0.00%     98.62% # attempts to use FU when none available (Count)
system.cpu0.statFuBusy::SimdFloatMult               0      0.00%     98.62% # attempts to use FU when none available (Count)
system.cpu0.statFuBusy::SimdFloatMultAcc            0      0.00%     98.62% # attempts to use FU when none available (Count)
system.cpu0.statFuBusy::SimdFloatSqrt               0      0.00%     98.62% # attempts to use FU when none available (Count)
system.cpu0.statFuBusy::SimdReduceAdd               0      0.00%     98.62% # attempts to use FU when none available (Count)
system.cpu0.statFuBusy::SimdReduceAlu               0      0.00%     98.62% # attempts to use FU when none available (Count)
system.cpu0.statFuBusy::SimdReduceCmp               0      0.00%     98.62% # attempts to use FU when none available (Count)
system.cpu0.statFuBusy::SimdFloatReduceAdd            0      0.00%     98.62% # attempts to use FU when none available (Count)
system.cpu0.statFuBusy::SimdFloatReduceCmp            0      0.00%     98.62% # attempts to use FU when none available (Count)
system.cpu0.statFuBusy::SimdAes                     0      0.00%     98.62% # attempts to use FU when none available (Count)
system.cpu0.statFuBusy::SimdAesMix                  0      0.00%     98.62% # attempts to use FU when none available (Count)
system.cpu0.statFuBusy::SimdSha1Hash                0      0.00%     98.62% # attempts to use FU when none available (Count)
system.cpu0.statFuBusy::SimdSha1Hash2               0      0.00%     98.62% # attempts to use FU when none available (Count)
system.cpu0.statFuBusy::SimdSha256Hash              0      0.00%     98.62% # attempts to use FU when none available (Count)
system.cpu0.statFuBusy::SimdSha256Hash2             0      0.00%     98.62% # attempts to use FU when none available (Count)
system.cpu0.statFuBusy::SimdShaSigma2               0      0.00%     98.62% # attempts to use FU when none available (Count)
system.cpu0.statFuBusy::SimdShaSigma3               0      0.00%     98.62% # attempts to use FU when none available (Count)
system.cpu0.statFuBusy::SimdPredAlu                 0      0.00%     98.62% # attempts to use FU when none available (Count)
system.cpu0.statFuBusy::MemRead                472743      1.37%    100.00% # attempts to use FU when none available (Count)
system.cpu0.statFuBusy::MemWrite                  997      0.00%    100.00% # attempts to use FU when none available (Count)
system.cpu0.statFuBusy::FloatMemRead              118      0.00%    100.00% # attempts to use FU when none available (Count)
system.cpu0.statFuBusy::FloatMemWrite              10      0.00%    100.00% # attempts to use FU when none available (Count)
system.cpu0.statFuBusy::IprAccess                   0      0.00%    100.00% # attempts to use FU when none available (Count)
system.cpu0.statFuBusy::InstPrefetch                0      0.00%    100.00% # attempts to use FU when none available (Count)
system.cpu0.statIssuedInstType_0::No_OpClass         1373      0.00%      0.00% # Number of instructions issued per FU type, per thread (Count)
system.cpu0.statIssuedInstType_0::IntAlu     57808326     44.46%     44.46% # Number of instructions issued per FU type, per thread (Count)
system.cpu0.statIssuedInstType_0::IntMult      1328631      1.02%     45.48% # Number of instructions issued per FU type, per thread (Count)
system.cpu0.statIssuedInstType_0::IntDiv      2114766      1.63%     47.11% # Number of instructions issued per FU type, per thread (Count)
system.cpu0.statIssuedInstType_0::FloatAdd     11678049      8.98%     56.09% # Number of instructions issued per FU type, per thread (Count)
system.cpu0.statIssuedInstType_0::FloatCmp           11      0.00%     56.09% # Number of instructions issued per FU type, per thread (Count)
system.cpu0.statIssuedInstType_0::FloatCvt       262183      0.20%     56.29% # Number of instructions issued per FU type, per thread (Count)
system.cpu0.statIssuedInstType_0::FloatMult     11416673      8.78%     65.07% # Number of instructions issued per FU type, per thread (Count)
system.cpu0.statIssuedInstType_0::FloatMultAcc            0      0.00%     65.07% # Number of instructions issued per FU type, per thread (Count)
system.cpu0.statIssuedInstType_0::FloatDiv       291848      0.22%     65.29% # Number of instructions issued per FU type, per thread (Count)
system.cpu0.statIssuedInstType_0::FloatMisc       729084      0.56%     65.85% # Number of instructions issued per FU type, per thread (Count)
system.cpu0.statIssuedInstType_0::FloatSqrt            1      0.00%     65.85% # Number of instructions issued per FU type, per thread (Count)
system.cpu0.statIssuedInstType_0::SimdAdd            0      0.00%     65.85% # Number of instructions issued per FU type, per thread (Count)
system.cpu0.statIssuedInstType_0::SimdAddAcc            0      0.00%     65.85% # Number of instructions issued per FU type, per thread (Count)
system.cpu0.statIssuedInstType_0::SimdAlu            0      0.00%     65.85% # Number of instructions issued per FU type, per thread (Count)
system.cpu0.statIssuedInstType_0::SimdCmp            0      0.00%     65.85% # Number of instructions issued per FU type, per thread (Count)
system.cpu0.statIssuedInstType_0::SimdCvt            0      0.00%     65.85% # Number of instructions issued per FU type, per thread (Count)
system.cpu0.statIssuedInstType_0::SimdMisc            0      0.00%     65.85% # Number of instructions issued per FU type, per thread (Count)
system.cpu0.statIssuedInstType_0::SimdMult            0      0.00%     65.85% # Number of instructions issued per FU type, per thread (Count)
system.cpu0.statIssuedInstType_0::SimdMultAcc            0      0.00%     65.85% # Number of instructions issued per FU type, per thread (Count)
system.cpu0.statIssuedInstType_0::SimdShift            0      0.00%     65.85% # Number of instructions issued per FU type, per thread (Count)
system.cpu0.statIssuedInstType_0::SimdShiftAcc            0      0.00%     65.85% # Number of instructions issued per FU type, per thread (Count)
system.cpu0.statIssuedInstType_0::SimdDiv            0      0.00%     65.85% # Number of instructions issued per FU type, per thread (Count)
system.cpu0.statIssuedInstType_0::SimdSqrt            0      0.00%     65.85% # Number of instructions issued per FU type, per thread (Count)
system.cpu0.statIssuedInstType_0::SimdFloatAdd            0      0.00%     65.85% # Number of instructions issued per FU type, per thread (Count)
system.cpu0.statIssuedInstType_0::SimdFloatAlu            0      0.00%     65.85% # Number of instructions issued per FU type, per thread (Count)
system.cpu0.statIssuedInstType_0::SimdFloatCmp            0      0.00%     65.85% # Number of instructions issued per FU type, per thread (Count)
system.cpu0.statIssuedInstType_0::SimdFloatCvt            0      0.00%     65.85% # Number of instructions issued per FU type, per thread (Count)
system.cpu0.statIssuedInstType_0::SimdFloatDiv            0      0.00%     65.85% # Number of instructions issued per FU type, per thread (Count)
system.cpu0.statIssuedInstType_0::SimdFloatMisc            0      0.00%     65.85% # Number of instructions issued per FU type, per thread (Count)
system.cpu0.statIssuedInstType_0::SimdFloatMult            0      0.00%     65.85% # Number of instructions issued per FU type, per thread (Count)
system.cpu0.statIssuedInstType_0::SimdFloatMultAcc            0      0.00%     65.85% # Number of instructions issued per FU type, per thread (Count)
system.cpu0.statIssuedInstType_0::SimdFloatSqrt            0      0.00%     65.85% # Number of instructions issued per FU type, per thread (Count)
system.cpu0.statIssuedInstType_0::SimdReduceAdd            0      0.00%     65.85% # Number of instructions issued per FU type, per thread (Count)
system.cpu0.statIssuedInstType_0::SimdReduceAlu            0      0.00%     65.85% # Number of instructions issued per FU type, per thread (Count)
system.cpu0.statIssuedInstType_0::SimdReduceCmp            0      0.00%     65.85% # Number of instructions issued per FU type, per thread (Count)
system.cpu0.statIssuedInstType_0::SimdFloatReduceAdd            0      0.00%     65.85% # Number of instructions issued per FU type, per thread (Count)
system.cpu0.statIssuedInstType_0::SimdFloatReduceCmp            0      0.00%     65.85% # Number of instructions issued per FU type, per thread (Count)
system.cpu0.statIssuedInstType_0::SimdAes            0      0.00%     65.85% # Number of instructions issued per FU type, per thread (Count)
system.cpu0.statIssuedInstType_0::SimdAesMix            0      0.00%     65.85% # Number of instructions issued per FU type, per thread (Count)
system.cpu0.statIssuedInstType_0::SimdSha1Hash            0      0.00%     65.85% # Number of instructions issued per FU type, per thread (Count)
system.cpu0.statIssuedInstType_0::SimdSha1Hash2            0      0.00%     65.85% # Number of instructions issued per FU type, per thread (Count)
system.cpu0.statIssuedInstType_0::SimdSha256Hash            0      0.00%     65.85% # Number of instructions issued per FU type, per thread (Count)
system.cpu0.statIssuedInstType_0::SimdSha256Hash2            0      0.00%     65.85% # Number of instructions issued per FU type, per thread (Count)
system.cpu0.statIssuedInstType_0::SimdShaSigma2            0      0.00%     65.85% # Number of instructions issued per FU type, per thread (Count)
system.cpu0.statIssuedInstType_0::SimdShaSigma3            0      0.00%     65.85% # Number of instructions issued per FU type, per thread (Count)
system.cpu0.statIssuedInstType_0::SimdPredAlu            0      0.00%     65.85% # Number of instructions issued per FU type, per thread (Count)
system.cpu0.statIssuedInstType_0::MemRead      6126770      4.71%     70.57% # Number of instructions issued per FU type, per thread (Count)
system.cpu0.statIssuedInstType_0::MemWrite      2129147      1.64%     72.20% # Number of instructions issued per FU type, per thread (Count)
system.cpu0.statIssuedInstType_0::FloatMemRead     24173950     18.59%     90.79% # Number of instructions issued per FU type, per thread (Count)
system.cpu0.statIssuedInstType_0::FloatMemWrite     11970759      9.21%    100.00% # Number of instructions issued per FU type, per thread (Count)
system.cpu0.statIssuedInstType_0::IprAccess            0      0.00%    100.00% # Number of instructions issued per FU type, per thread (Count)
system.cpu0.statIssuedInstType_0::InstPrefetch            0      0.00%    100.00% # Number of instructions issued per FU type, per thread (Count)
system.cpu0.statIssuedInstType_0::total     130031571                       # Number of instructions issued per FU type, per thread (Count)
system.cpu0.issueRate                        0.913929                       # Inst issue rate ((Count/Cycle))
system.cpu0.fuBusy                           34435989                       # FU busy when requested (Count)
system.cpu0.fuBusyRate                       0.264828                       # FU busy rate (busy events/executed inst) ((Count/Count))
system.cpu0.intInstQueueReads               315604288                       # Number of integer instruction queue reads (Count)
system.cpu0.intInstQueueWrites               69931202                       # Number of integer instruction queue writes (Count)
system.cpu0.intInstQueueWakeupAccesses       69335323                       # Number of integer instruction queue wakeup accesses (Count)
system.cpu0.fpInstQueueReads                121086671                       # Number of floating instruction queue reads (Count)
system.cpu0.fpInstQueueWrites                62185574                       # Number of floating instruction queue writes (Count)
system.cpu0.fpInstQueueWakeupAccesses        60464355                       # Number of floating instruction queue wakeup accesses (Count)
system.cpu0.vecInstQueueReads                       0                       # Number of vector instruction queue reads (Count)
system.cpu0.vecInstQueueWrites                      0                       # Number of vector instruction queue writes (Count)
system.cpu0.vecInstQueueWakeupAccesses              0                       # Number of vector instruction queue wakeup accesses (Count)
system.cpu0.intAluAccesses                  103902099                       # Number of integer alu accesses (Count)
system.cpu0.fpAluAccesses                    60564088                       # Number of floating point alu accesses (Count)
system.cpu0.vecAluAccesses                          0                       # Number of vector alu accesses (Count)
system.cpu0.numInsts                        129811880                       # Number of executed instructions (Count)
system.cpu0.numLoadInsts                     30245979                       # Number of load instructions executed (Count)
system.cpu0.numSquashedInsts                   219691                       # Number of squashed instructions skipped in execute (Count)
system.cpu0.numSwp                                  0                       # Number of swp insts executed (Count)
system.cpu0.numNop                                  0                       # Number of nop insts executed (Count)
system.cpu0.numRefs                          44345624                       # Number of memory reference insts executed (Count)
system.cpu0.numBranches                      17527541                       # Number of branches executed (Count)
system.cpu0.numStoreInsts                    14099645                       # Number of stores executed (Count)
system.cpu0.numRate                          0.912385                       # Inst execution rate ((Count/Cycle))
system.cpu0.timesIdled                            670                       # Number of times that the entire CPU went into an idle state and unscheduled itself (Count)
system.cpu0.idleCycles                          90780                       # Total number of cycles that the CPU has spent unscheduled due to idling (Cycle)
system.cpu0.quiesceCycles                     6438561                       # Total number of cycles that CPU has spent quiesced or waiting for an interrupt (Cycle)
system.cpu0.committedInsts                  129651547                       # Number of Instructions Simulated (Count)
system.cpu0.committedOps                    129652170                       # Number of Ops (including micro ops) Simulated (Count)
system.cpu0.cpi                              1.097384                       # CPI: Cycles Per Instruction ((Cycle/Count))
system.cpu0.totalCpi                         1.097384                       # CPI: Total CPI of All Threads ((Cycle/Count))
system.cpu0.ipc                              0.911258                       # IPC: Instructions Per Cycle ((Count/Cycle))
system.cpu0.totalIpc                         0.911258                       # IPC: Total IPC of All Threads ((Count/Cycle))
system.cpu0.intRegfileReads                 130194788                       # Number of integer regfile reads (Count)
system.cpu0.intRegfileWrites                 50473864                       # Number of integer regfile writes (Count)
system.cpu0.fpRegfileReads                   60201682                       # Number of floating regfile reads (Count)
system.cpu0.fpRegfileWrites                  48494275                       # Number of floating regfile writes (Count)
system.cpu0.miscRegfileReads                108491422                       # number of misc regfile reads (Count)
system.cpu0.miscRegfileWrites                24376099                       # number of misc regfile writes (Count)
system.cpu0.MemDepUnit__0.insertedLoads      31045321                       # Number of loads inserted to the mem dependence unit. (Count)
system.cpu0.MemDepUnit__0.insertedStores     14110412                       # Number of stores inserted to the mem dependence unit. (Count)
system.cpu0.MemDepUnit__0.conflictingLoads     26603975                       # Number of conflicting loads. (Count)
system.cpu0.MemDepUnit__0.conflictingStores     13381106                       # Number of conflicting stores. (Count)
system.cpu0.MemDepUnit__1.insertedLoads             0                       # Number of loads inserted to the mem dependence unit. (Count)
system.cpu0.MemDepUnit__1.insertedStores            0                       # Number of stores inserted to the mem dependence unit. (Count)
system.cpu0.MemDepUnit__1.conflictingLoads            0                       # Number of conflicting loads. (Count)
system.cpu0.MemDepUnit__1.conflictingStores            0                       # Number of conflicting stores. (Count)
system.cpu0.MemDepUnit__2.insertedLoads             0                       # Number of loads inserted to the mem dependence unit. (Count)
system.cpu0.MemDepUnit__2.insertedStores            0                       # Number of stores inserted to the mem dependence unit. (Count)
system.cpu0.MemDepUnit__2.conflictingLoads            0                       # Number of conflicting loads. (Count)
system.cpu0.MemDepUnit__2.conflictingStores            0                       # Number of conflicting stores. (Count)
system.cpu0.MemDepUnit__3.insertedLoads             0                       # Number of loads inserted to the mem dependence unit. (Count)
system.cpu0.MemDepUnit__3.insertedStores            0                       # Number of stores inserted to the mem dependence unit. (Count)
system.cpu0.MemDepUnit__3.conflictingLoads            0                       # Number of conflicting loads. (Count)
system.cpu0.MemDepUnit__3.conflictingStores            0                       # Number of conflicting stores. (Count)
system.cpu0.branchPred.lookups               22659516                       # Number of BP lookups (Count)
system.cpu0.branchPred.condPredicted         20518714                       # Number of conditional branches predicted (Count)
system.cpu0.branchPred.condIncorrect           760538                       # Number of conditional branches incorrect (Count)
system.cpu0.branchPred.BTBLookups            19375213                       # Number of BTB lookups (Count)
system.cpu0.branchPred.BTBHits               19373205                       # Number of BTB hits (Count)
system.cpu0.branchPred.BTBHitRatio           0.999896                       # BTB Hit Ratio (Ratio)
system.cpu0.branchPred.RASUsed                 796094                       # Number of times the RAS was used to get a target. (Count)
system.cpu0.branchPred.RASIncorrect                 8                       # Number of incorrect RAS predictions. (Count)
system.cpu0.branchPred.indirectLookups            415                       # Number of indirect predictor lookups. (Count)
system.cpu0.branchPred.indirectHits                85                       # Number of indirect target hits. (Count)
system.cpu0.branchPred.indirectMisses             330                       # Number of indirect misses. (Count)
system.cpu0.branchPred.indirectMispredicted          117                       # Number of mispredicted indirect branches. (Count)
system.cpu0.commit.commitSquashedInsts        1228732                       # The number of squashed insts skipped by commit (Count)
system.cpu0.commit.commitNonSpecStalls           2409                       # The number of times commit has been forced to stall to communicate backwards (Count)
system.cpu0.commit.branchMispredicts           760051                       # The number of times a branch was mispredicted (Count)
system.cpu0.commit.numCommittedDist::samples    141401210                       # Number of insts commited each cycle (Count)
system.cpu0.commit.numCommittedDist::mean     0.916910                       # Number of insts commited each cycle (Count)
system.cpu0.commit.numCommittedDist::stdev     1.415489                       # Number of insts commited each cycle (Count)
system.cpu0.commit.numCommittedDist::underflows            0      0.00%      0.00% # Number of insts commited each cycle (Count)
system.cpu0.commit.numCommittedDist::0       75483466     53.38%     53.38% # Number of insts commited each cycle (Count)
system.cpu0.commit.numCommittedDist::1       26151552     18.49%     71.88% # Number of insts commited each cycle (Count)
system.cpu0.commit.numCommittedDist::2       33318418     23.56%     95.44% # Number of insts commited each cycle (Count)
system.cpu0.commit.numCommittedDist::3        1848325      1.31%     96.75% # Number of insts commited each cycle (Count)
system.cpu0.commit.numCommittedDist::4         990547      0.70%     97.45% # Number of insts commited each cycle (Count)
system.cpu0.commit.numCommittedDist::5         282357      0.20%     97.65% # Number of insts commited each cycle (Count)
system.cpu0.commit.numCommittedDist::6         169048      0.12%     97.77% # Number of insts commited each cycle (Count)
system.cpu0.commit.numCommittedDist::7         329430      0.23%     98.00% # Number of insts commited each cycle (Count)
system.cpu0.commit.numCommittedDist::8        2828067      2.00%    100.00% # Number of insts commited each cycle (Count)
system.cpu0.commit.numCommittedDist::overflows            0      0.00%    100.00% # Number of insts commited each cycle (Count)
system.cpu0.commit.numCommittedDist::min_value            0                       # Number of insts commited each cycle (Count)
system.cpu0.commit.numCommittedDist::max_value            8                       # Number of insts commited each cycle (Count)
system.cpu0.commit.numCommittedDist::total    141401210                       # Number of insts commited each cycle (Count)
system.cpu0.commit.instsCommitted           129651547                       # Number of instructions committed (Count)
system.cpu0.commit.opsCommitted             129652170                       # Number of ops (including micro ops) committed (Count)
system.cpu0.commit.memRefs                   44309900                       # Number of memory references committed (Count)
system.cpu0.commit.loads                     30216472                       # Number of loads committed (Count)
system.cpu0.commit.amos                           640                       # Number of atomic instructions committed (Count)
system.cpu0.commit.membars                       1161                       # Number of memory barriers committed (Count)
system.cpu0.commit.branches                  17495999                       # Number of branches committed (Count)
system.cpu0.commit.vectorInstructions               0                       # Number of committed Vector instructions. (Count)
system.cpu0.commit.floating                  60459728                       # Number of committed floating point instructions. (Count)
system.cpu0.commit.integer                  105000802                       # Number of committed integer instructions. (Count)
system.cpu0.commit.functionCalls               790614                       # Number of function calls committed. (Count)
system.cpu0.commit.committedInstType_0::No_OpClass         1178      0.00%      0.00% # Class of committed instruction (Count)
system.cpu0.commit.committedInstType_0::IntAlu     57527675     44.37%     44.37% # Class of committed instruction (Count)
system.cpu0.commit.committedInstType_0::IntMult      1326089      1.02%     45.39% # Class of committed instruction (Count)
system.cpu0.commit.committedInstType_0::IntDiv      2111229      1.63%     47.02% # Class of committed instruction (Count)
system.cpu0.commit.committedInstType_0::FloatAdd     11677376      9.01%     56.03% # Class of committed instruction (Count)
system.cpu0.commit.committedInstType_0::FloatCmp           11      0.00%     56.03% # Class of committed instruction (Count)
system.cpu0.commit.committedInstType_0::FloatCvt       262162      0.20%     56.23% # Class of committed instruction (Count)
system.cpu0.commit.committedInstType_0::FloatMult     11415744      8.80%     65.04% # Class of committed instruction (Count)
system.cpu0.commit.committedInstType_0::FloatMultAcc            0      0.00%     65.04% # Class of committed instruction (Count)
system.cpu0.commit.committedInstType_0::FloatDiv       291776      0.23%     65.26% # Class of committed instruction (Count)
system.cpu0.commit.committedInstType_0::FloatMisc       729029      0.56%     65.82% # Class of committed instruction (Count)
system.cpu0.commit.committedInstType_0::FloatSqrt            1      0.00%     65.82% # Class of committed instruction (Count)
system.cpu0.commit.committedInstType_0::SimdAdd            0      0.00%     65.82% # Class of committed instruction (Count)
system.cpu0.commit.committedInstType_0::SimdAddAcc            0      0.00%     65.82% # Class of committed instruction (Count)
system.cpu0.commit.committedInstType_0::SimdAlu            0      0.00%     65.82% # Class of committed instruction (Count)
system.cpu0.commit.committedInstType_0::SimdCmp            0      0.00%     65.82% # Class of committed instruction (Count)
system.cpu0.commit.committedInstType_0::SimdCvt            0      0.00%     65.82% # Class of committed instruction (Count)
system.cpu0.commit.committedInstType_0::SimdMisc            0      0.00%     65.82% # Class of committed instruction (Count)
system.cpu0.commit.committedInstType_0::SimdMult            0      0.00%     65.82% # Class of committed instruction (Count)
system.cpu0.commit.committedInstType_0::SimdMultAcc            0      0.00%     65.82% # Class of committed instruction (Count)
system.cpu0.commit.committedInstType_0::SimdShift            0      0.00%     65.82% # Class of committed instruction (Count)
system.cpu0.commit.committedInstType_0::SimdShiftAcc            0      0.00%     65.82% # Class of committed instruction (Count)
system.cpu0.commit.committedInstType_0::SimdDiv            0      0.00%     65.82% # Class of committed instruction (Count)
system.cpu0.commit.committedInstType_0::SimdSqrt            0      0.00%     65.82% # Class of committed instruction (Count)
system.cpu0.commit.committedInstType_0::SimdFloatAdd            0      0.00%     65.82% # Class of committed instruction (Count)
system.cpu0.commit.committedInstType_0::SimdFloatAlu            0      0.00%     65.82% # Class of committed instruction (Count)
system.cpu0.commit.committedInstType_0::SimdFloatCmp            0      0.00%     65.82% # Class of committed instruction (Count)
system.cpu0.commit.committedInstType_0::SimdFloatCvt            0      0.00%     65.82% # Class of committed instruction (Count)
system.cpu0.commit.committedInstType_0::SimdFloatDiv            0      0.00%     65.82% # Class of committed instruction (Count)
system.cpu0.commit.committedInstType_0::SimdFloatMisc            0      0.00%     65.82% # Class of committed instruction (Count)
system.cpu0.commit.committedInstType_0::SimdFloatMult            0      0.00%     65.82% # Class of committed instruction (Count)
system.cpu0.commit.committedInstType_0::SimdFloatMultAcc            0      0.00%     65.82% # Class of committed instruction (Count)
system.cpu0.commit.committedInstType_0::SimdFloatSqrt            0      0.00%     65.82% # Class of committed instruction (Count)
system.cpu0.commit.committedInstType_0::SimdReduceAdd            0      0.00%     65.82% # Class of committed instruction (Count)
system.cpu0.commit.committedInstType_0::SimdReduceAlu            0      0.00%     65.82% # Class of committed instruction (Count)
system.cpu0.commit.committedInstType_0::SimdReduceCmp            0      0.00%     65.82% # Class of committed instruction (Count)
system.cpu0.commit.committedInstType_0::SimdFloatReduceAdd            0      0.00%     65.82% # Class of committed instruction (Count)
system.cpu0.commit.committedInstType_0::SimdFloatReduceCmp            0      0.00%     65.82% # Class of committed instruction (Count)
system.cpu0.commit.committedInstType_0::SimdAes            0      0.00%     65.82% # Class of committed instruction (Count)
system.cpu0.commit.committedInstType_0::SimdAesMix            0      0.00%     65.82% # Class of committed instruction (Count)
system.cpu0.commit.committedInstType_0::SimdSha1Hash            0      0.00%     65.82% # Class of committed instruction (Count)
system.cpu0.commit.committedInstType_0::SimdSha1Hash2            0      0.00%     65.82% # Class of committed instruction (Count)
system.cpu0.commit.committedInstType_0::SimdSha256Hash            0      0.00%     65.82% # Class of committed instruction (Count)
system.cpu0.commit.committedInstType_0::SimdSha256Hash2            0      0.00%     65.82% # Class of committed instruction (Count)
system.cpu0.commit.committedInstType_0::SimdShaSigma2            0      0.00%     65.82% # Class of committed instruction (Count)
system.cpu0.commit.committedInstType_0::SimdShaSigma3            0      0.00%     65.82% # Class of committed instruction (Count)
system.cpu0.commit.committedInstType_0::SimdPredAlu            0      0.00%     65.82% # Class of committed instruction (Count)
system.cpu0.commit.committedInstType_0::MemRead      6103178      4.71%     70.53% # Class of committed instruction (Count)
system.cpu0.commit.committedInstType_0::MemWrite      2123093      1.64%     72.17% # Class of committed instruction (Count)
system.cpu0.commit.committedInstType_0::FloatMemRead     24113934     18.60%     90.77% # Class of committed instruction (Count)
system.cpu0.commit.committedInstType_0::FloatMemWrite     11969695      9.23%    100.00% # Class of committed instruction (Count)
system.cpu0.commit.committedInstType_0::IprAccess            0      0.00%    100.00% # Class of committed instruction (Count)
system.cpu0.commit.committedInstType_0::InstPrefetch            0      0.00%    100.00% # Class of committed instruction (Count)
system.cpu0.commit.committedInstType_0::total    129652170                       # Class of committed instruction (Count)
system.cpu0.commit.commitEligibleSamples      2828067                       # number cycles where commit BW limit reached (Cycle)
system.cpu0.dcache.demandHits::cpu0.data     42431151                       # number of demand (read+write) hits (Count)
system.cpu0.dcache.demandHits::total         42431151                       # number of demand (read+write) hits (Count)
system.cpu0.dcache.overallHits::cpu0.data     42431151                       # number of overall hits (Count)
system.cpu0.dcache.overallHits::total        42431151                       # number of overall hits (Count)
system.cpu0.dcache.demandMisses::cpu0.data       376049                       # number of demand (read+write) misses (Count)
system.cpu0.dcache.demandMisses::total         376049                       # number of demand (read+write) misses (Count)
system.cpu0.dcache.overallMisses::cpu0.data       376049                       # number of overall misses (Count)
system.cpu0.dcache.overallMisses::total        376049                       # number of overall misses (Count)
system.cpu0.dcache.demandMissLatency::cpu0.data  11505983724                       # number of demand (read+write) miss ticks (Tick)
system.cpu0.dcache.demandMissLatency::total  11505983724                       # number of demand (read+write) miss ticks (Tick)
system.cpu0.dcache.overallMissLatency::cpu0.data  11505983724                       # number of overall miss ticks (Tick)
system.cpu0.dcache.overallMissLatency::total  11505983724                       # number of overall miss ticks (Tick)
system.cpu0.dcache.demandAccesses::cpu0.data     42807200                       # number of demand (read+write) accesses (Count)
system.cpu0.dcache.demandAccesses::total     42807200                       # number of demand (read+write) accesses (Count)
system.cpu0.dcache.overallAccesses::cpu0.data     42807200                       # number of overall (read+write) accesses (Count)
system.cpu0.dcache.overallAccesses::total     42807200                       # number of overall (read+write) accesses (Count)
system.cpu0.dcache.demandMissRate::cpu0.data     0.008785                       # miss rate for demand accesses (Ratio)
system.cpu0.dcache.demandMissRate::total     0.008785                       # miss rate for demand accesses (Ratio)
system.cpu0.dcache.overallMissRate::cpu0.data     0.008785                       # miss rate for overall accesses (Ratio)
system.cpu0.dcache.overallMissRate::total     0.008785                       # miss rate for overall accesses (Ratio)
system.cpu0.dcache.demandAvgMissLatency::cpu0.data 30597.033163                       # average overall miss latency in ticks ((Tick/Count))
system.cpu0.dcache.demandAvgMissLatency::total 30597.033163                       # average overall miss latency in ticks ((Tick/Count))
system.cpu0.dcache.overallAvgMissLatency::cpu0.data 30597.033163                       # average overall miss latency ((Tick/Count))
system.cpu0.dcache.overallAvgMissLatency::total 30597.033163                       # average overall miss latency ((Tick/Count))
system.cpu0.dcache.blockedCycles::no_mshrs        18208                       # number of cycles access was blocked (Cycle)
system.cpu0.dcache.blockedCycles::no_targets          347                       # number of cycles access was blocked (Cycle)
system.cpu0.dcache.blockedCauses::no_mshrs          340                       # number of times access was blocked (Count)
system.cpu0.dcache.blockedCauses::no_targets            2                       # number of times access was blocked (Count)
system.cpu0.dcache.avgBlocked::no_mshrs     53.552941                       # average number of cycles each access was blocked ((Cycle/Count))
system.cpu0.dcache.avgBlocked::no_targets   173.500000                       # average number of cycles each access was blocked ((Cycle/Count))
system.cpu0.dcache.writebacks::writebacks       161651                       # number of writebacks (Count)
system.cpu0.dcache.writebacks::total           161651                       # number of writebacks (Count)
system.cpu0.dcache.demandMshrHits::cpu0.data       115988                       # number of demand (read+write) MSHR hits (Count)
system.cpu0.dcache.demandMshrHits::total       115988                       # number of demand (read+write) MSHR hits (Count)
system.cpu0.dcache.overallMshrHits::cpu0.data       115988                       # number of overall MSHR hits (Count)
system.cpu0.dcache.overallMshrHits::total       115988                       # number of overall MSHR hits (Count)
system.cpu0.dcache.demandMshrMisses::cpu0.data       260061                       # number of demand (read+write) MSHR misses (Count)
system.cpu0.dcache.demandMshrMisses::total       260061                       # number of demand (read+write) MSHR misses (Count)
system.cpu0.dcache.overallMshrMisses::cpu0.data       260061                       # number of overall MSHR misses (Count)
system.cpu0.dcache.overallMshrMisses::total       260061                       # number of overall MSHR misses (Count)
system.cpu0.dcache.demandMshrMissLatency::cpu0.data   5051342598                       # number of demand (read+write) MSHR miss ticks (Tick)
system.cpu0.dcache.demandMshrMissLatency::total   5051342598                       # number of demand (read+write) MSHR miss ticks (Tick)
system.cpu0.dcache.overallMshrMissLatency::cpu0.data   5051342598                       # number of overall MSHR miss ticks (Tick)
system.cpu0.dcache.overallMshrMissLatency::total   5051342598                       # number of overall MSHR miss ticks (Tick)
system.cpu0.dcache.demandMshrMissRate::cpu0.data     0.006075                       # mshr miss ratio for demand accesses (Ratio)
system.cpu0.dcache.demandMshrMissRate::total     0.006075                       # mshr miss ratio for demand accesses (Ratio)
system.cpu0.dcache.overallMshrMissRate::cpu0.data     0.006075                       # mshr miss ratio for overall accesses (Ratio)
system.cpu0.dcache.overallMshrMissRate::total     0.006075                       # mshr miss ratio for overall accesses (Ratio)
system.cpu0.dcache.demandAvgMshrMissLatency::cpu0.data 19423.683667                       # average overall mshr miss latency ((Tick/Count))
system.cpu0.dcache.demandAvgMshrMissLatency::total 19423.683667                       # average overall mshr miss latency ((Tick/Count))
system.cpu0.dcache.overallAvgMshrMissLatency::cpu0.data 19423.683667                       # average overall mshr miss latency ((Tick/Count))
system.cpu0.dcache.overallAvgMshrMissLatency::total 19423.683667                       # average overall mshr miss latency ((Tick/Count))
system.cpu0.dcache.replacements                254522                       # number of replacements (Count)
system.cpu0.dcache.LoadLockedReq.hits::cpu0.data          199                       # number of LoadLockedReq hits (Count)
system.cpu0.dcache.LoadLockedReq.hits::total          199                       # number of LoadLockedReq hits (Count)
system.cpu0.dcache.LoadLockedReq.misses::cpu0.data          294                       # number of LoadLockedReq misses (Count)
system.cpu0.dcache.LoadLockedReq.misses::total          294                       # number of LoadLockedReq misses (Count)
system.cpu0.dcache.LoadLockedReq.missLatency::cpu0.data      7813179                       # number of LoadLockedReq miss ticks (Tick)
system.cpu0.dcache.LoadLockedReq.missLatency::total      7813179                       # number of LoadLockedReq miss ticks (Tick)
system.cpu0.dcache.LoadLockedReq.accesses::cpu0.data          493                       # number of LoadLockedReq accesses(hits+misses) (Count)
system.cpu0.dcache.LoadLockedReq.accesses::total          493                       # number of LoadLockedReq accesses(hits+misses) (Count)
system.cpu0.dcache.LoadLockedReq.missRate::cpu0.data     0.596349                       # miss rate for LoadLockedReq accesses (Ratio)
system.cpu0.dcache.LoadLockedReq.missRate::total     0.596349                       # miss rate for LoadLockedReq accesses (Ratio)
system.cpu0.dcache.LoadLockedReq.avgMissLatency::cpu0.data 26575.438776                       # average LoadLockedReq miss latency ((Tick/Count))
system.cpu0.dcache.LoadLockedReq.avgMissLatency::total 26575.438776                       # average LoadLockedReq miss latency ((Tick/Count))
system.cpu0.dcache.LoadLockedReq.mshrHits::cpu0.data          152                       # number of LoadLockedReq MSHR hits (Count)
system.cpu0.dcache.LoadLockedReq.mshrHits::total          152                       # number of LoadLockedReq MSHR hits (Count)
system.cpu0.dcache.LoadLockedReq.mshrMisses::cpu0.data          142                       # number of LoadLockedReq MSHR misses (Count)
system.cpu0.dcache.LoadLockedReq.mshrMisses::total          142                       # number of LoadLockedReq MSHR misses (Count)
system.cpu0.dcache.LoadLockedReq.mshrMissLatency::cpu0.data      4456206                       # number of LoadLockedReq MSHR miss ticks (Tick)
system.cpu0.dcache.LoadLockedReq.mshrMissLatency::total      4456206                       # number of LoadLockedReq MSHR miss ticks (Tick)
system.cpu0.dcache.LoadLockedReq.mshrMissRate::cpu0.data     0.288032                       # mshr miss rate for LoadLockedReq accesses (Ratio)
system.cpu0.dcache.LoadLockedReq.mshrMissRate::total     0.288032                       # mshr miss rate for LoadLockedReq accesses (Ratio)
system.cpu0.dcache.LoadLockedReq.avgMshrMissLatency::cpu0.data 31381.732394                       # average LoadLockedReq mshr miss latency ((Tick/Count))
system.cpu0.dcache.LoadLockedReq.avgMshrMissLatency::total 31381.732394                       # average LoadLockedReq mshr miss latency ((Tick/Count))
system.cpu0.dcache.ReadReq.hits::cpu0.data     28480804                       # number of ReadReq hits (Count)
system.cpu0.dcache.ReadReq.hits::total       28480804                       # number of ReadReq hits (Count)
system.cpu0.dcache.ReadReq.misses::cpu0.data       234010                       # number of ReadReq misses (Count)
system.cpu0.dcache.ReadReq.misses::total       234010                       # number of ReadReq misses (Count)
system.cpu0.dcache.ReadReq.missLatency::cpu0.data   2410350237                       # number of ReadReq miss ticks (Tick)
system.cpu0.dcache.ReadReq.missLatency::total   2410350237                       # number of ReadReq miss ticks (Tick)
system.cpu0.dcache.ReadReq.accesses::cpu0.data     28714814                       # number of ReadReq accesses(hits+misses) (Count)
system.cpu0.dcache.ReadReq.accesses::total     28714814                       # number of ReadReq accesses(hits+misses) (Count)
system.cpu0.dcache.ReadReq.missRate::cpu0.data     0.008149                       # miss rate for ReadReq accesses (Ratio)
system.cpu0.dcache.ReadReq.missRate::total     0.008149                       # miss rate for ReadReq accesses (Ratio)
system.cpu0.dcache.ReadReq.avgMissLatency::cpu0.data 10300.201859                       # average ReadReq miss latency ((Tick/Count))
system.cpu0.dcache.ReadReq.avgMissLatency::total 10300.201859                       # average ReadReq miss latency ((Tick/Count))
system.cpu0.dcache.ReadReq.mshrHits::cpu0.data        11504                       # number of ReadReq MSHR hits (Count)
system.cpu0.dcache.ReadReq.mshrHits::total        11504                       # number of ReadReq MSHR hits (Count)
system.cpu0.dcache.ReadReq.mshrMisses::cpu0.data       222506                       # number of ReadReq MSHR misses (Count)
system.cpu0.dcache.ReadReq.mshrMisses::total       222506                       # number of ReadReq MSHR misses (Count)
system.cpu0.dcache.ReadReq.mshrMissLatency::cpu0.data   2090189718                       # number of ReadReq MSHR miss ticks (Tick)
system.cpu0.dcache.ReadReq.mshrMissLatency::total   2090189718                       # number of ReadReq MSHR miss ticks (Tick)
system.cpu0.dcache.ReadReq.mshrMissRate::cpu0.data     0.007749                       # mshr miss rate for ReadReq accesses (Ratio)
system.cpu0.dcache.ReadReq.mshrMissRate::total     0.007749                       # mshr miss rate for ReadReq accesses (Ratio)
system.cpu0.dcache.ReadReq.avgMshrMissLatency::cpu0.data  9393.857775                       # average ReadReq mshr miss latency ((Tick/Count))
system.cpu0.dcache.ReadReq.avgMshrMissLatency::total  9393.857775                       # average ReadReq mshr miss latency ((Tick/Count))
system.cpu0.dcache.StoreCondFailReq.missLatency::cpu0.data      1157175                       # number of StoreCondFailReq miss ticks (Tick)
system.cpu0.dcache.StoreCondFailReq.missLatency::total      1157175                       # number of StoreCondFailReq miss ticks (Tick)
system.cpu0.dcache.StoreCondFailReq.avgMissLatency::cpu0.data          inf                       # average StoreCondFailReq miss latency ((Tick/Count))
system.cpu0.dcache.StoreCondFailReq.avgMissLatency::total          inf                       # average StoreCondFailReq miss latency ((Tick/Count))
system.cpu0.dcache.StoreCondFailReq.mshrMissLatency::cpu0.data      1137195                       # number of StoreCondFailReq MSHR miss ticks (Tick)
system.cpu0.dcache.StoreCondFailReq.mshrMissLatency::total      1137195                       # number of StoreCondFailReq MSHR miss ticks (Tick)
system.cpu0.dcache.StoreCondFailReq.avgMshrMissLatency::cpu0.data          inf                       # average StoreCondFailReq mshr miss latency ((Tick/Count))
system.cpu0.dcache.StoreCondFailReq.avgMshrMissLatency::total          inf                       # average StoreCondFailReq mshr miss latency ((Tick/Count))
system.cpu0.dcache.StoreCondReq.hits::cpu0.data          174                       # number of StoreCondReq hits (Count)
system.cpu0.dcache.StoreCondReq.hits::total          174                       # number of StoreCondReq hits (Count)
system.cpu0.dcache.StoreCondReq.misses::cpu0.data          156                       # number of StoreCondReq misses (Count)
system.cpu0.dcache.StoreCondReq.misses::total          156                       # number of StoreCondReq misses (Count)
system.cpu0.dcache.StoreCondReq.missLatency::cpu0.data      3077919                       # number of StoreCondReq miss ticks (Tick)
system.cpu0.dcache.StoreCondReq.missLatency::total      3077919                       # number of StoreCondReq miss ticks (Tick)
system.cpu0.dcache.StoreCondReq.accesses::cpu0.data          330                       # number of StoreCondReq accesses(hits+misses) (Count)
system.cpu0.dcache.StoreCondReq.accesses::total          330                       # number of StoreCondReq accesses(hits+misses) (Count)
system.cpu0.dcache.StoreCondReq.missRate::cpu0.data     0.472727                       # miss rate for StoreCondReq accesses (Ratio)
system.cpu0.dcache.StoreCondReq.missRate::total     0.472727                       # miss rate for StoreCondReq accesses (Ratio)
system.cpu0.dcache.StoreCondReq.avgMissLatency::cpu0.data 19730.250000                       # average StoreCondReq miss latency ((Tick/Count))
system.cpu0.dcache.StoreCondReq.avgMissLatency::total 19730.250000                       # average StoreCondReq miss latency ((Tick/Count))
system.cpu0.dcache.StoreCondReq.mshrMisses::cpu0.data          156                       # number of StoreCondReq MSHR misses (Count)
system.cpu0.dcache.StoreCondReq.mshrMisses::total          156                       # number of StoreCondReq MSHR misses (Count)
system.cpu0.dcache.StoreCondReq.mshrMissLatency::cpu0.data      2994003                       # number of StoreCondReq MSHR miss ticks (Tick)
system.cpu0.dcache.StoreCondReq.mshrMissLatency::total      2994003                       # number of StoreCondReq MSHR miss ticks (Tick)
system.cpu0.dcache.StoreCondReq.mshrMissRate::cpu0.data     0.472727                       # mshr miss rate for StoreCondReq accesses (Ratio)
system.cpu0.dcache.StoreCondReq.mshrMissRate::total     0.472727                       # mshr miss rate for StoreCondReq accesses (Ratio)
system.cpu0.dcache.StoreCondReq.avgMshrMissLatency::cpu0.data 19192.326923                       # average StoreCondReq mshr miss latency ((Tick/Count))
system.cpu0.dcache.StoreCondReq.avgMshrMissLatency::total 19192.326923                       # average StoreCondReq mshr miss latency ((Tick/Count))
system.cpu0.dcache.SwapReq.hits::cpu0.data          421                       # number of SwapReq hits (Count)
system.cpu0.dcache.SwapReq.hits::total            421                       # number of SwapReq hits (Count)
system.cpu0.dcache.SwapReq.misses::cpu0.data          219                       # number of SwapReq misses (Count)
system.cpu0.dcache.SwapReq.misses::total          219                       # number of SwapReq misses (Count)
system.cpu0.dcache.SwapReq.missLatency::cpu0.data      7878780                       # number of SwapReq miss ticks (Tick)
system.cpu0.dcache.SwapReq.missLatency::total      7878780                       # number of SwapReq miss ticks (Tick)
system.cpu0.dcache.SwapReq.accesses::cpu0.data          640                       # number of SwapReq accesses(hits+misses) (Count)
system.cpu0.dcache.SwapReq.accesses::total          640                       # number of SwapReq accesses(hits+misses) (Count)
system.cpu0.dcache.SwapReq.missRate::cpu0.data     0.342187                       # miss rate for SwapReq accesses (Ratio)
system.cpu0.dcache.SwapReq.missRate::total     0.342187                       # miss rate for SwapReq accesses (Ratio)
system.cpu0.dcache.SwapReq.avgMissLatency::cpu0.data 35976.164384                       # average SwapReq miss latency ((Tick/Count))
system.cpu0.dcache.SwapReq.avgMissLatency::total 35976.164384                       # average SwapReq miss latency ((Tick/Count))
system.cpu0.dcache.SwapReq.mshrHits::cpu0.data           59                       # number of SwapReq MSHR hits (Count)
system.cpu0.dcache.SwapReq.mshrHits::total           59                       # number of SwapReq MSHR hits (Count)
system.cpu0.dcache.SwapReq.mshrMisses::cpu0.data          160                       # number of SwapReq MSHR misses (Count)
system.cpu0.dcache.SwapReq.mshrMisses::total          160                       # number of SwapReq MSHR misses (Count)
system.cpu0.dcache.SwapReq.mshrMissLatency::cpu0.data      7732926                       # number of SwapReq MSHR miss ticks (Tick)
system.cpu0.dcache.SwapReq.mshrMissLatency::total      7732926                       # number of SwapReq MSHR miss ticks (Tick)
system.cpu0.dcache.SwapReq.mshrMissRate::cpu0.data     0.250000                       # mshr miss rate for SwapReq accesses (Ratio)
system.cpu0.dcache.SwapReq.mshrMissRate::total     0.250000                       # mshr miss rate for SwapReq accesses (Ratio)
system.cpu0.dcache.SwapReq.avgMshrMissLatency::cpu0.data 48330.787500                       # average SwapReq mshr miss latency ((Tick/Count))
system.cpu0.dcache.SwapReq.avgMshrMissLatency::total 48330.787500                       # average SwapReq mshr miss latency ((Tick/Count))
system.cpu0.dcache.WriteReq.hits::cpu0.data     13950347                       # number of WriteReq hits (Count)
system.cpu0.dcache.WriteReq.hits::total      13950347                       # number of WriteReq hits (Count)
system.cpu0.dcache.WriteReq.misses::cpu0.data       142039                       # number of WriteReq misses (Count)
system.cpu0.dcache.WriteReq.misses::total       142039                       # number of WriteReq misses (Count)
system.cpu0.dcache.WriteReq.missLatency::cpu0.data   9095633487                       # number of WriteReq miss ticks (Tick)
system.cpu0.dcache.WriteReq.missLatency::total   9095633487                       # number of WriteReq miss ticks (Tick)
system.cpu0.dcache.WriteReq.accesses::cpu0.data     14092386                       # number of WriteReq accesses(hits+misses) (Count)
system.cpu0.dcache.WriteReq.accesses::total     14092386                       # number of WriteReq accesses(hits+misses) (Count)
system.cpu0.dcache.WriteReq.missRate::cpu0.data     0.010079                       # miss rate for WriteReq accesses (Ratio)
system.cpu0.dcache.WriteReq.missRate::total     0.010079                       # miss rate for WriteReq accesses (Ratio)
system.cpu0.dcache.WriteReq.avgMissLatency::cpu0.data 64036.169552                       # average WriteReq miss latency ((Tick/Count))
system.cpu0.dcache.WriteReq.avgMissLatency::total 64036.169552                       # average WriteReq miss latency ((Tick/Count))
system.cpu0.dcache.WriteReq.mshrHits::cpu0.data       104484                       # number of WriteReq MSHR hits (Count)
system.cpu0.dcache.WriteReq.mshrHits::total       104484                       # number of WriteReq MSHR hits (Count)
system.cpu0.dcache.WriteReq.mshrMisses::cpu0.data        37555                       # number of WriteReq MSHR misses (Count)
system.cpu0.dcache.WriteReq.mshrMisses::total        37555                       # number of WriteReq MSHR misses (Count)
system.cpu0.dcache.WriteReq.mshrMissLatency::cpu0.data   2961152880                       # number of WriteReq MSHR miss ticks (Tick)
system.cpu0.dcache.WriteReq.mshrMissLatency::total   2961152880                       # number of WriteReq MSHR miss ticks (Tick)
system.cpu0.dcache.WriteReq.mshrMissRate::cpu0.data     0.002665                       # mshr miss rate for WriteReq accesses (Ratio)
system.cpu0.dcache.WriteReq.mshrMissRate::total     0.002665                       # mshr miss rate for WriteReq accesses (Ratio)
system.cpu0.dcache.WriteReq.avgMshrMissLatency::cpu0.data 78848.432432                       # average WriteReq mshr miss latency ((Tick/Count))
system.cpu0.dcache.WriteReq.avgMshrMissLatency::total 78848.432432                       # average WriteReq mshr miss latency ((Tick/Count))
system.cpu0.dcache.power_state.pwrStateResidencyTicks::UNDEFINED  49522465296                       # Cumulative time (in ticks) in various power states (Tick)
system.cpu0.dcache.tags.tagsInUse          511.132276                       # Average ticks per tags in use ((Tick/Count))
system.cpu0.dcache.tags.totalRefs            42701297                       # Total number of references to valid blocks. (Count)
system.cpu0.dcache.tags.sampledRefs            256072                       # Sample count of references to valid blocks. (Count)
system.cpu0.dcache.tags.avgRefs            166.755042                       # Average number of references to valid blocks. ((Count/Count))
system.cpu0.dcache.tags.warmupTick             195138                       # The tick when the warmup percentage was hit. (Tick)
system.cpu0.dcache.tags.occupancies::cpu0.data   511.132276                       # Average occupied blocks per tick, per requestor ((Count/Tick))
system.cpu0.dcache.tags.avgOccs::cpu0.data     0.998305                       # Average percentage of cache occupancy ((Ratio/Tick))
system.cpu0.dcache.tags.avgOccs::total       0.998305                       # Average percentage of cache occupancy ((Ratio/Tick))
system.cpu0.dcache.tags.occupanciesTaskId::1024          504                       # Occupied blocks per task id (Count)
system.cpu0.dcache.tags.ageTaskId_1024::0           49                       # Occupied blocks per task id, per block age (Count)
system.cpu0.dcache.tags.ageTaskId_1024::1          182                       # Occupied blocks per task id, per block age (Count)
system.cpu0.dcache.tags.ageTaskId_1024::2          269                       # Occupied blocks per task id, per block age (Count)
system.cpu0.dcache.tags.ageTaskId_1024::4            4                       # Occupied blocks per task id, per block age (Count)
system.cpu0.dcache.tags.ratioOccsTaskId::1024     0.984375                       # Ratio of occupied blocks and all blocks, per task id (Ratio)
system.cpu0.dcache.tags.tagAccesses         342725376                       # Number of tag accesses (Count)
system.cpu0.dcache.tags.dataAccesses        342725376                       # Number of data accesses (Count)
system.cpu0.dcache.tags.power_state.pwrStateResidencyTicks::UNDEFINED  49522465296                       # Cumulative time (in ticks) in various power states (Tick)
system.cpu0.decode.idleCycles                 7291779                       # Number of cycles decode is idle (Cycle)
system.cpu0.decode.blockedCycles            114762255                       # Number of cycles decode is blocked (Cycle)
system.cpu0.decode.runCycles                  5091790                       # Number of cycles decode is running (Cycle)
system.cpu0.decode.unblockCycles             14279742                       # Number of cycles decode is unblocking (Cycle)
system.cpu0.decode.squashCycles                761207                       # Number of cycles decode is squashing (Cycle)
system.cpu0.decode.branchResolved            15681786                       # Number of times decode resolved a branch (Count)
system.cpu0.decode.branchMispred                  506                       # Number of times decode detected a branch misprediction (Count)
system.cpu0.decode.decodedInsts             141056359                       # Number of instructions handled by decode (Count)
system.cpu0.decode.squashedInsts                 1848                       # Number of squashed instructions handled by decode (Count)
system.cpu0.dtb_walker_cache.blockedCycles::no_mshrs            0                       # number of cycles access was blocked (Cycle)
system.cpu0.dtb_walker_cache.blockedCycles::no_targets            0                       # number of cycles access was blocked (Cycle)
system.cpu0.dtb_walker_cache.blockedCauses::no_mshrs            0                       # number of times access was blocked (Count)
system.cpu0.dtb_walker_cache.blockedCauses::no_targets            0                       # number of times access was blocked (Count)
system.cpu0.dtb_walker_cache.avgBlocked::no_mshrs          nan                       # average number of cycles each access was blocked ((Cycle/Count))
system.cpu0.dtb_walker_cache.avgBlocked::no_targets          nan                       # average number of cycles each access was blocked ((Cycle/Count))
system.cpu0.dtb_walker_cache.replacements            0                       # number of replacements (Count)
system.cpu0.dtb_walker_cache.power_state.pwrStateResidencyTicks::UNDEFINED  49522465296                       # Cumulative time (in ticks) in various power states (Tick)
system.cpu0.dtb_walker_cache.tags.tagsInUse            0                       # Average ticks per tags in use ((Tick/Count))
system.cpu0.dtb_walker_cache.tags.totalRefs            0                       # Total number of references to valid blocks. (Count)
system.cpu0.dtb_walker_cache.tags.sampledRefs            0                       # Sample count of references to valid blocks. (Count)
system.cpu0.dtb_walker_cache.tags.avgRefs          nan                       # Average number of references to valid blocks. ((Count/Count))
system.cpu0.dtb_walker_cache.tags.warmupTick            0                       # The tick when the warmup percentage was hit. (Tick)
system.cpu0.dtb_walker_cache.tags.tagAccesses            0                       # Number of tag accesses (Count)
system.cpu0.dtb_walker_cache.tags.dataAccesses            0                       # Number of data accesses (Count)
system.cpu0.dtb_walker_cache.tags.power_state.pwrStateResidencyTicks::UNDEFINED  49522465296                       # Cumulative time (in ticks) in various power states (Tick)
system.cpu0.fetch.icacheStallCycles           5284476                       # Number of cycles fetch is stalled on an Icache miss (Cycle)
system.cpu0.fetch.insts                     170806125                       # Number of instructions fetch has processed (Count)
system.cpu0.fetch.branches                   22659516                       # Number of branches that fetch encountered (Count)
system.cpu0.fetch.predictedBranches          20169384                       # Number of branches that fetch has predicted taken (Count)
system.cpu0.fetch.cycles                    136140298                       # Number of cycles fetch has run and was not squashing or blocked (Cycle)
system.cpu0.fetch.squashCycles                1523400                       # Number of cycles fetch has spent squashing (Cycle)
system.cpu0.fetch.miscStallCycles                 146                       # Number of cycles fetch has spent waiting on interrupts, or bad addresses, or out of MSHRs (Cycle)
system.cpu0.fetch.pendingTrapStallCycles           40                       # Number of stall cycles due to pending traps (Cycle)
system.cpu0.fetch.icacheWaitRetryStallCycles          113                       # Number of stall cycles due to full MSHR (Cycle)
system.cpu0.fetch.cacheLines                  5210564                       # Number of cache lines fetched (Count)
system.cpu0.fetch.icacheSquashes                 4976                       # Number of outstanding Icache misses that were squashed (Count)
system.cpu0.fetch.nisnDist::samples         142186773                       # Number of instructions fetched each cycle (Total) (Count)
system.cpu0.fetch.nisnDist::mean             1.201288                       # Number of instructions fetched each cycle (Total) (Count)
system.cpu0.fetch.nisnDist::stdev            2.743592                       # Number of instructions fetched each cycle (Total) (Count)
system.cpu0.fetch.nisnDist::underflows              0      0.00%      0.00% # Number of instructions fetched each cycle (Total) (Count)
system.cpu0.fetch.nisnDist::0               116709891     82.08%     82.08% # Number of instructions fetched each cycle (Total) (Count)
system.cpu0.fetch.nisnDist::1                 1970894      1.39%     83.47% # Number of instructions fetched each cycle (Total) (Count)
system.cpu0.fetch.nisnDist::2                  480715      0.34%     83.81% # Number of instructions fetched each cycle (Total) (Count)
system.cpu0.fetch.nisnDist::3                  937402      0.66%     84.47% # Number of instructions fetched each cycle (Total) (Count)
system.cpu0.fetch.nisnDist::4                  900199      0.63%     85.10% # Number of instructions fetched each cycle (Total) (Count)
system.cpu0.fetch.nisnDist::5                 1823732      1.28%     86.38% # Number of instructions fetched each cycle (Total) (Count)
system.cpu0.fetch.nisnDist::6                 1187793      0.84%     87.22% # Number of instructions fetched each cycle (Total) (Count)
system.cpu0.fetch.nisnDist::7                  192652      0.14%     87.35% # Number of instructions fetched each cycle (Total) (Count)
system.cpu0.fetch.nisnDist::8                17983495     12.65%    100.00% # Number of instructions fetched each cycle (Total) (Count)
system.cpu0.fetch.nisnDist::overflows               0      0.00%    100.00% # Number of instructions fetched each cycle (Total) (Count)
system.cpu0.fetch.nisnDist::min_value               0                       # Number of instructions fetched each cycle (Total) (Count)
system.cpu0.fetch.nisnDist::max_value               8                       # Number of instructions fetched each cycle (Total) (Count)
system.cpu0.fetch.nisnDist::total           142186773                       # Number of instructions fetched each cycle (Total) (Count)
system.cpu0.fetch.branchRate                 0.159263                       # Number of branch fetches per cycle (Ratio)
system.cpu0.fetch.rate                       1.200514                       # Number of inst fetches per cycle ((Count/Cycle))
system.cpu0.icache.demandHits::cpu0.inst      5209558                       # number of demand (read+write) hits (Count)
system.cpu0.icache.demandHits::total          5209558                       # number of demand (read+write) hits (Count)
system.cpu0.icache.overallHits::cpu0.inst      5209558                       # number of overall hits (Count)
system.cpu0.icache.overallHits::total         5209558                       # number of overall hits (Count)
system.cpu0.icache.demandMisses::cpu0.inst         1005                       # number of demand (read+write) misses (Count)
system.cpu0.icache.demandMisses::total           1005                       # number of demand (read+write) misses (Count)
system.cpu0.icache.overallMisses::cpu0.inst         1005                       # number of overall misses (Count)
system.cpu0.icache.overallMisses::total          1005                       # number of overall misses (Count)
system.cpu0.icache.demandMissLatency::cpu0.inst     78794791                       # number of demand (read+write) miss ticks (Tick)
system.cpu0.icache.demandMissLatency::total     78794791                       # number of demand (read+write) miss ticks (Tick)
system.cpu0.icache.overallMissLatency::cpu0.inst     78794791                       # number of overall miss ticks (Tick)
system.cpu0.icache.overallMissLatency::total     78794791                       # number of overall miss ticks (Tick)
system.cpu0.icache.demandAccesses::cpu0.inst      5210563                       # number of demand (read+write) accesses (Count)
system.cpu0.icache.demandAccesses::total      5210563                       # number of demand (read+write) accesses (Count)
system.cpu0.icache.overallAccesses::cpu0.inst      5210563                       # number of overall (read+write) accesses (Count)
system.cpu0.icache.overallAccesses::total      5210563                       # number of overall (read+write) accesses (Count)
system.cpu0.icache.demandMissRate::cpu0.inst     0.000193                       # miss rate for demand accesses (Ratio)
system.cpu0.icache.demandMissRate::total     0.000193                       # miss rate for demand accesses (Ratio)
system.cpu0.icache.overallMissRate::cpu0.inst     0.000193                       # miss rate for overall accesses (Ratio)
system.cpu0.icache.overallMissRate::total     0.000193                       # miss rate for overall accesses (Ratio)
system.cpu0.icache.demandAvgMissLatency::cpu0.inst 78402.777114                       # average overall miss latency in ticks ((Tick/Count))
system.cpu0.icache.demandAvgMissLatency::total 78402.777114                       # average overall miss latency in ticks ((Tick/Count))
system.cpu0.icache.overallAvgMissLatency::cpu0.inst 78402.777114                       # average overall miss latency ((Tick/Count))
system.cpu0.icache.overallAvgMissLatency::total 78402.777114                       # average overall miss latency ((Tick/Count))
system.cpu0.icache.blockedCycles::no_mshrs         1796                       # number of cycles access was blocked (Cycle)
system.cpu0.icache.blockedCycles::no_targets            0                       # number of cycles access was blocked (Cycle)
system.cpu0.icache.blockedCauses::no_mshrs           12                       # number of times access was blocked (Count)
system.cpu0.icache.blockedCauses::no_targets            0                       # number of times access was blocked (Count)
system.cpu0.icache.avgBlocked::no_mshrs    149.666667                       # average number of cycles each access was blocked ((Cycle/Count))
system.cpu0.icache.avgBlocked::no_targets          nan                       # average number of cycles each access was blocked ((Cycle/Count))
system.cpu0.icache.writebacks::writebacks          212                       # number of writebacks (Count)
system.cpu0.icache.writebacks::total              212                       # number of writebacks (Count)
system.cpu0.icache.demandMshrHits::cpu0.inst          291                       # number of demand (read+write) MSHR hits (Count)
system.cpu0.icache.demandMshrHits::total          291                       # number of demand (read+write) MSHR hits (Count)
system.cpu0.icache.overallMshrHits::cpu0.inst          291                       # number of overall MSHR hits (Count)
system.cpu0.icache.overallMshrHits::total          291                       # number of overall MSHR hits (Count)
system.cpu0.icache.demandMshrMisses::cpu0.inst          714                       # number of demand (read+write) MSHR misses (Count)
system.cpu0.icache.demandMshrMisses::total          714                       # number of demand (read+write) MSHR misses (Count)
system.cpu0.icache.overallMshrMisses::cpu0.inst          714                       # number of overall MSHR misses (Count)
system.cpu0.icache.overallMshrMisses::total          714                       # number of overall MSHR misses (Count)
system.cpu0.icache.demandMshrMissLatency::cpu0.inst     58972301                       # number of demand (read+write) MSHR miss ticks (Tick)
system.cpu0.icache.demandMshrMissLatency::total     58972301                       # number of demand (read+write) MSHR miss ticks (Tick)
system.cpu0.icache.overallMshrMissLatency::cpu0.inst     58972301                       # number of overall MSHR miss ticks (Tick)
system.cpu0.icache.overallMshrMissLatency::total     58972301                       # number of overall MSHR miss ticks (Tick)
system.cpu0.icache.demandMshrMissRate::cpu0.inst     0.000137                       # mshr miss ratio for demand accesses (Ratio)
system.cpu0.icache.demandMshrMissRate::total     0.000137                       # mshr miss ratio for demand accesses (Ratio)
system.cpu0.icache.overallMshrMissRate::cpu0.inst     0.000137                       # mshr miss ratio for overall accesses (Ratio)
system.cpu0.icache.overallMshrMissRate::total     0.000137                       # mshr miss ratio for overall accesses (Ratio)
system.cpu0.icache.demandAvgMshrMissLatency::cpu0.inst 82594.259104                       # average overall mshr miss latency ((Tick/Count))
system.cpu0.icache.demandAvgMshrMissLatency::total 82594.259104                       # average overall mshr miss latency ((Tick/Count))
system.cpu0.icache.overallAvgMshrMissLatency::cpu0.inst 82594.259104                       # average overall mshr miss latency ((Tick/Count))
system.cpu0.icache.overallAvgMshrMissLatency::total 82594.259104                       # average overall mshr miss latency ((Tick/Count))
system.cpu0.icache.replacements                   212                       # number of replacements (Count)
system.cpu0.icache.ReadReq.hits::cpu0.inst      5209558                       # number of ReadReq hits (Count)
system.cpu0.icache.ReadReq.hits::total        5209558                       # number of ReadReq hits (Count)
system.cpu0.icache.ReadReq.misses::cpu0.inst         1005                       # number of ReadReq misses (Count)
system.cpu0.icache.ReadReq.misses::total         1005                       # number of ReadReq misses (Count)
system.cpu0.icache.ReadReq.missLatency::cpu0.inst     78794791                       # number of ReadReq miss ticks (Tick)
system.cpu0.icache.ReadReq.missLatency::total     78794791                       # number of ReadReq miss ticks (Tick)
system.cpu0.icache.ReadReq.accesses::cpu0.inst      5210563                       # number of ReadReq accesses(hits+misses) (Count)
system.cpu0.icache.ReadReq.accesses::total      5210563                       # number of ReadReq accesses(hits+misses) (Count)
system.cpu0.icache.ReadReq.missRate::cpu0.inst     0.000193                       # miss rate for ReadReq accesses (Ratio)
system.cpu0.icache.ReadReq.missRate::total     0.000193                       # miss rate for ReadReq accesses (Ratio)
system.cpu0.icache.ReadReq.avgMissLatency::cpu0.inst 78402.777114                       # average ReadReq miss latency ((Tick/Count))
system.cpu0.icache.ReadReq.avgMissLatency::total 78402.777114                       # average ReadReq miss latency ((Tick/Count))
system.cpu0.icache.ReadReq.mshrHits::cpu0.inst          291                       # number of ReadReq MSHR hits (Count)
system.cpu0.icache.ReadReq.mshrHits::total          291                       # number of ReadReq MSHR hits (Count)
system.cpu0.icache.ReadReq.mshrMisses::cpu0.inst          714                       # number of ReadReq MSHR misses (Count)
system.cpu0.icache.ReadReq.mshrMisses::total          714                       # number of ReadReq MSHR misses (Count)
system.cpu0.icache.ReadReq.mshrMissLatency::cpu0.inst     58972301                       # number of ReadReq MSHR miss ticks (Tick)
system.cpu0.icache.ReadReq.mshrMissLatency::total     58972301                       # number of ReadReq MSHR miss ticks (Tick)
system.cpu0.icache.ReadReq.mshrMissRate::cpu0.inst     0.000137                       # mshr miss rate for ReadReq accesses (Ratio)
system.cpu0.icache.ReadReq.mshrMissRate::total     0.000137                       # mshr miss rate for ReadReq accesses (Ratio)
system.cpu0.icache.ReadReq.avgMshrMissLatency::cpu0.inst 82594.259104                       # average ReadReq mshr miss latency ((Tick/Count))
system.cpu0.icache.ReadReq.avgMshrMissLatency::total 82594.259104                       # average ReadReq mshr miss latency ((Tick/Count))
system.cpu0.icache.power_state.pwrStateResidencyTicks::UNDEFINED  49522465296                       # Cumulative time (in ticks) in various power states (Tick)
[...]
system.mem_ctrls.dram.writeRowHitRate             nan                       # Row buffer hit rate for writes (Ratio)
system.mem_ctrls.dram.bytesPerActivate::samples         8982                       # Bytes accessed per row activation (Byte)
system.mem_ctrls.dram.bytesPerActivate::mean   243.894010                       # Bytes accessed per row activation (Byte)
system.mem_ctrls.dram.bytesPerActivate::gmean   232.682008                       # Bytes accessed per row activation (Byte)
system.mem_ctrls.dram.bytesPerActivate::stdev    73.159498                       # Bytes accessed per row activation (Byte)
system.mem_ctrls.dram.bytesPerActivate::0-127          422      4.70%      4.70% # Bytes accessed per row activation (Byte)
system.mem_ctrls.dram.bytesPerActivate::128-255          738      8.22%     12.91% # Bytes accessed per row activation (Byte)
system.mem_ctrls.dram.bytesPerActivate::256-383         7732     86.08%     99.00% # Bytes accessed per row activation (Byte)
system.mem_ctrls.dram.bytesPerActivate::384-511           26      0.29%     99.29% # Bytes accessed per row activation (Byte)
system.mem_ctrls.dram.bytesPerActivate::512-639           11      0.12%     99.41% # Bytes accessed per row activation (Byte)
system.mem_ctrls.dram.bytesPerActivate::640-767           10      0.11%     99.52% # Bytes accessed per row activation (Byte)
system.mem_ctrls.dram.bytesPerActivate::768-895            3      0.03%     99.55% # Bytes accessed per row activation (Byte)
system.mem_ctrls.dram.bytesPerActivate::896-1023           10      0.11%     99.67% # Bytes accessed per row activation (Byte)
system.mem_ctrls.dram.bytesPerActivate::1024-1151           30      0.33%    100.00% # Bytes accessed per row activation (Byte)
system.mem_ctrls.dram.bytesPerActivate::total         8982                       # Bytes accessed per row activation (Byte)
system.mem_ctrls.dram.bytesRead               2191936                       # Total bytes read (Byte)
system.mem_ctrls.dram.bytesWritten                  0                       # Total bytes written (Byte)
system.mem_ctrls.dram.avgRdBW               44.261448                       # Average DRAM read bandwidth in MiBytes/s ((Byte/Second))
system.mem_ctrls.dram.avgWrBW                       0                       # Average DRAM write bandwidth in MiBytes/s ((Byte/Second))
system.mem_ctrls.dram.peakBW                 12800.00                       # Theoretical peak bandwidth in MiByte/s ((Byte/Second))
system.mem_ctrls.dram.busUtil                    0.35                       # Data bus utilization in percentage (Ratio)
system.mem_ctrls.dram.busUtilRead                0.35                       # Data bus utilization in percentage for reads (Ratio)
system.mem_ctrls.dram.busUtilWrite               0.00                       # Data bus utilization in percentage for writes (Ratio)
system.mem_ctrls.dram.pageHitRate               73.76                       # Row buffer hit rate, read and write combined (Ratio)
system.mem_ctrls.dram.power_state.pwrStateResidencyTicks::UNDEFINED  49522465296                       # Cumulative time (in ticks) in various power states (Tick)
system.mem_ctrls.dram.rank0.actEnergy        31980060                       # Energy for activate commands per rank (pJ) (Joule)
system.mem_ctrls.dram.rank0.preEnergy        16994010                       # Energy for precharge commands per rank (pJ) (Joule)
system.mem_ctrls.dram.rank0.readEnergy      122822280                       # Energy for read commands per rank (pJ) (Joule)
system.mem_ctrls.dram.rank0.writeEnergy             0                       # Energy for write commands per rank (pJ) (Joule)
system.mem_ctrls.dram.rank0.refreshEnergy 3909110400.000000                       # Energy for refresh commands per rank (pJ) (Joule)
system.mem_ctrls.dram.rank0.actBackEnergy   2678327400                       # Energy for active background per rank (pJ) (Joule)
system.mem_ctrls.dram.rank0.preBackEnergy  16761193440                       # Energy for precharge background per rank (pJ) (Joule)
system.mem_ctrls.dram.rank0.actPowerDownEnergy            0                       # Energy for active power-down per rank (pJ) (Joule)
system.mem_ctrls.dram.rank0.prePowerDownEnergy            0                       # Energy for precharge power-down per rank (pJ) (Joule)
system.mem_ctrls.dram.rank0.selfRefreshEnergy            0                       # Energy for self refresh per rank (pJ) (Joule)
system.mem_ctrls.dram.rank0.totalEnergy   23520427590                       # Total energy per rank (pJ) (Joule)
system.mem_ctrls.dram.rank0.averagePower   474.944602                       # Core power per rank (mW) (Watt)
system.mem_ctrls.dram.rank0.totalIdleTime            0                       # Total Idle time Per DRAM Rank (Tick)
system.mem_ctrls.dram.rank0.pwrStateTime::IDLE  43551663065                       # Time in different power states (Tick)
system.mem_ctrls.dram.rank0.pwrStateTime::REF   1653600000                       # Time in different power states (Tick)
system.mem_ctrls.dram.rank0.pwrStateTime::SREF            0                       # Time in different power states (Tick)
system.mem_ctrls.dram.rank0.pwrStateTime::PRE_PDN            0                       # Time in different power states (Tick)
system.mem_ctrls.dram.rank0.pwrStateTime::ACT   4317202231                       # Time in different power states (Tick)
system.mem_ctrls.dram.rank0.pwrStateTime::ACT_PDN            0                       # Time in different power states (Tick)
system.mem_ctrls.dram.rank1.actEnergy        32187120                       # Energy for activate commands per rank (pJ) (Joule)
system.mem_ctrls.dram.rank1.preEnergy        17092680                       # Energy for precharge commands per rank (pJ) (Joule)
system.mem_ctrls.dram.rank1.readEnergy      121715580                       # Energy for read commands per rank (pJ) (Joule)
system.mem_ctrls.dram.rank1.writeEnergy             0                       # Energy for write commands per rank (pJ) (Joule)
system.mem_ctrls.dram.rank1.refreshEnergy 3909110400.000000                       # Energy for refresh commands per rank (pJ) (Joule)
system.mem_ctrls.dram.rank1.actBackEnergy   2640061590                       # Energy for active background per rank (pJ) (Joule)
system.mem_ctrls.dram.rank1.preBackEnergy  16793417280                       # Energy for precharge background per rank (pJ) (Joule)
system.mem_ctrls.dram.rank1.actPowerDownEnergy            0                       # Energy for active power-down per rank (pJ) (Joule)
system.mem_ctrls.dram.rank1.prePowerDownEnergy            0                       # Energy for precharge power-down per rank (pJ) (Joule)
system.mem_ctrls.dram.rank1.selfRefreshEnergy            0                       # Energy for self refresh per rank (pJ) (Joule)
system.mem_ctrls.dram.rank1.totalEnergy   23513584650                       # Total energy per rank (pJ) (Joule)
system.mem_ctrls.dram.rank1.averagePower   474.806424                       # Core power per rank (mW) (Watt)
system.mem_ctrls.dram.rank1.totalIdleTime            0                       # Total Idle time Per DRAM Rank (Tick)
system.mem_ctrls.dram.rank1.pwrStateTime::IDLE  43635838756                       # Time in different power states (Tick)
system.mem_ctrls.dram.rank1.pwrStateTime::REF   1653600000                       # Time in different power states (Tick)
system.mem_ctrls.dram.rank1.pwrStateTime::SREF            0                       # Time in different power states (Tick)
system.mem_ctrls.dram.rank1.pwrStateTime::PRE_PDN            0                       # Time in different power states (Tick)
system.mem_ctrls.dram.rank1.pwrStateTime::ACT   4233026540                       # Time in different power states (Tick)
system.mem_ctrls.dram.rank1.pwrStateTime::ACT_PDN            0                       # Time in different power states (Tick)
system.mem_ctrls.power_state.pwrStateResidencyTicks::UNDEFINED  49522465296                       # Cumulative time (in ticks) in various power states (Tick)
system.membus.transDist::ReadResp                 925                       # Transaction distribution (Count)
system.membus.transDist::UpgradeReq             35552                       # Transaction distribution (Count)
system.membus.transDist::SCUpgradeReq             302                       # Transaction distribution (Count)
system.membus.transDist::ReadExReq              33530                       # Transaction distribution (Count)
system.membus.transDist::ReadExResp             33324                       # Transaction distribution (Count)
system.membus.transDist::ReadSharedReq            925                       # Transaction distribution (Count)
system.membus.transDist::InvalidateReq              4                       # Transaction distribution (Count)
system.membus.pktCount_system.l3.mem_side_port::system.mem_ctrls.port       104562                       # Packet count per connected requestor and responder (Count)
system.membus.pktCount::total                  104562                       # Packet count per connected requestor and responder (Count)
system.membus.pktSize_system.l3.mem_side_port::system.mem_ctrls.port      2191936                       # Cumulative packet size per connected requestor and responder (Byte)
system.membus.pktSize::total                  2191936                       # Cumulative packet size per connected requestor and responder (Byte)
system.membus.snoops                            36060                       # Total snoops (Count)
system.membus.snoopTraffic                          0                       # Total snoop traffic (Byte)
system.membus.snoopFanout::samples              70313                       # Request fanout histogram (Count)
system.membus.snoopFanout::mean                     0                       # Request fanout histogram (Count)
system.membus.snoopFanout::stdev                    0                       # Request fanout histogram (Count)
system.membus.snoopFanout::underflows               0      0.00%      0.00% # Request fanout histogram (Count)
system.membus.snoopFanout::0                    70313    100.00%    100.00% # Request fanout histogram (Count)
system.membus.snoopFanout::1                        0      0.00%    100.00% # Request fanout histogram (Count)
system.membus.snoopFanout::overflows                0      0.00%    100.00% # Request fanout histogram (Count)
system.membus.snoopFanout::min_value                0                       # Request fanout histogram (Count)
system.membus.snoopFanout::max_value                0                       # Request fanout histogram (Count)
system.membus.snoopFanout::total                70313                       # Request fanout histogram (Count)
system.membus.power_state.pwrStateResidencyTicks::UNDEFINED  49522465296                       # Cumulative time (in ticks) in various power states (Tick)
system.membus.reqLayer0.occupancy            45184152                       # Layer occupancy (ticks) (Tick)
system.membus.reqLayer0.utilization               0.0                       # Layer utilization (Ratio)
system.membus.respLayer1.occupancy          182053308                       # Layer occupancy (ticks) (Tick)
system.membus.respLayer1.utilization              0.0                       # Layer utilization (Ratio)
system.membus.snoop_filter.totRequests          70313                       # Total number of requests made to the snoop filter. (Count)
system.membus.snoop_filter.hitSingleRequests        36060                       # Number of requests hitting in the snoop filter with a single holder of the requested data. (Count)
system.membus.snoop_filter.hitMultiRequests            0                       # Number of requests hitting in the snoop filter with multiple (>1) holders of the requested data. (Count)
system.membus.snoop_filter.totSnoops                0                       # Total number of snoops made to the snoop filter. (Count)
system.membus.snoop_filter.hitSingleSnoops            0                       # Number of snoops hitting in the snoop filter with a single holder of the requested data. (Count)
system.membus.snoop_filter.hitMultiSnoops            0                       # Number of snoops hitting in the snoop filter with multiple (>1) holders of the requested data. (Count)
system.tol3bus.transDist::ReadResp              98397                       # Transaction distribution (Count)
system.tol3bus.transDist::ReadRespWithInvalidate            1                       # Transaction distribution (Count)
system.tol3bus.transDist::WritebackDirty         8656                       # Transaction distribution (Count)
system.tol3bus.transDist::CleanEvict              316                       # Transaction distribution (Count)
system.tol3bus.transDist::UpgradeReq            36741                       # Transaction distribution (Count)
system.tol3bus.transDist::SCUpgradeReq            438                       # Transaction distribution (Count)
system.tol3bus.transDist::UpgradeResp           37179                       # Transaction distribution (Count)
system.tol3bus.transDist::SCUpgradeFailReq           91                       # Transaction distribution (Count)
system.tol3bus.transDist::UpgradeFailResp           91                       # Transaction distribution (Count)
system.tol3bus.transDist::ReadExReq             33759                       # Transaction distribution (Count)
system.tol3bus.transDist::ReadExResp            33759                       # Transaction distribution (Count)
system.tol3bus.transDist::ReadSharedReq         98398                       # Transaction distribution (Count)
system.tol3bus.transDist::InvalidateReq             6                       # Transaction distribution (Count)
system.tol3bus.transDist::InvalidateResp            6                       # Transaction distribution (Count)
system.tol3bus.pktCount_system.cpu0.l2cache.mem_side_port::system.l3.cpu_side_port       102832                       # Packet count per connected requestor and responder (Count)
system.tol3bus.pktCount_system.cpu1.l2cache.mem_side_port::system.l3.cpu_side_port        39939                       # Packet count per connected requestor and responder (Count)
system.tol3bus.pktCount_system.cpu2.l2cache.mem_side_port::system.l3.cpu_side_port        42096                       # Packet count per connected requestor and responder (Count)
system.tol3bus.pktCount_system.cpu3.l2cache.mem_side_port::system.l3.cpu_side_port        37872                       # Packet count per connected requestor and responder (Count)
system.tol3bus.pktCount::total                 222739                       # Packet count per connected requestor and responder (Count)
system.tol3bus.pktSize_system.cpu0.l2cache.mem_side_port::system.l3.cpu_side_port      2825856                       # Cumulative packet size per connected requestor and responder (Byte)
system.tol3bus.pktSize_system.cpu1.l2cache.mem_side_port::system.l3.cpu_side_port       211584                       # Cumulative packet size per connected requestor and responder (Byte)
system.tol3bus.pktSize_system.cpu2.l2cache.mem_side_port::system.l3.cpu_side_port       217984                       # Cumulative packet size per connected requestor and responder (Byte)
system.tol3bus.pktSize_system.cpu3.l2cache.mem_side_port::system.l3.cpu_side_port        50752                       # Cumulative packet size per connected requestor and responder (Byte)
system.tol3bus.pktSize::total                 3306176                       # Cumulative packet size per connected requestor and responder (Byte)
system.tol3bus.snoops                          125099                       # Total snoops (Count)
system.tol3bus.snoopTraffic                   5711680                       # Total snoop traffic (Byte)
system.tol3bus.snoopFanout::samples            169433                       # Request fanout histogram (Count)
system.tol3bus.snoopFanout::mean             1.064444                       # Request fanout histogram (Count)
system.tol3bus.snoopFanout::stdev            0.875950                       # Request fanout histogram (Count)
system.tol3bus.snoopFanout::underflows              0      0.00%      0.00% # Request fanout histogram (Count)
system.tol3bus.snoopFanout::0                   42430     25.04%     25.04% # Request fanout histogram (Count)
system.tol3bus.snoopFanout::1                   91118     53.78%     78.82% # Request fanout histogram (Count)
system.tol3bus.snoopFanout::2                   18421     10.87%     89.69% # Request fanout histogram (Count)
system.tol3bus.snoopFanout::3                   17464     10.31%    100.00% # Request fanout histogram (Count)
system.tol3bus.snoopFanout::4                       0      0.00%    100.00% # Request fanout histogram (Count)
system.tol3bus.snoopFanout::overflows               0      0.00%    100.00% # Request fanout histogram (Count)
system.tol3bus.snoopFanout::min_value               0                       # Request fanout histogram (Count)
system.tol3bus.snoopFanout::max_value               3                       # Request fanout histogram (Count)
system.tol3bus.snoopFanout::total              169433                       # Request fanout histogram (Count)
system.tol3bus.power_state.pwrStateResidencyTicks::UNDEFINED  49522465296                       # Cumulative time (in ticks) in various power states (Tick)
system.tol3bus.reqLayer0.occupancy           65177419                       # Layer occupancy (ticks) (Tick)
system.tol3bus.reqLayer0.utilization              0.0                       # Layer utilization (Ratio)
system.tol3bus.respLayer0.occupancy          56111822                       # Layer occupancy (ticks) (Tick)
system.tol3bus.respLayer0.utilization             0.0                       # Layer utilization (Ratio)
system.tol3bus.respLayer1.occupancy          29154101                       # Layer occupancy (ticks) (Tick)
system.tol3bus.respLayer1.utilization             0.0                       # Layer utilization (Ratio)
system.tol3bus.respLayer2.occupancy          30313965                       # Layer occupancy (ticks) (Tick)
system.tol3bus.respLayer2.utilization             0.0                       # Layer utilization (Ratio)
system.tol3bus.respLayer3.occupancy          28954628                       # Layer occupancy (ticks) (Tick)
system.tol3bus.respLayer3.utilization             0.0                       # Layer utilization (Ratio)
system.tol3bus.snoop_filter.totRequests        178405                       # Total number of requests made to the snoop filter. (Count)
system.tol3bus.snoop_filter.hitSingleRequests        62146                       # Number of requests hitting in the snoop filter with a single holder of the requested data. (Count)
system.tol3bus.snoop_filter.hitMultiRequests        73829                       # Number of requests hitting in the snoop filter with multiple (>1) holders of the requested data. (Count)
system.tol3bus.snoop_filter.totSnoops               0                       # Total number of snoops made to the snoop filter. (Count)
system.tol3bus.snoop_filter.hitSingleSnoops            0                       # Number of snoops hitting in the snoop filter with a single holder of the requested data. (Count)
system.tol3bus.snoop_filter.hitMultiSnoops            0                       # Number of snoops hitting in the snoop filter with multiple (>1) holders of the requested data. (Count)
system.voltage_domain.voltage                       1                       # Voltage in Volts (Volt)
system.workload.inst.arm                            0                       # number of arm instructions executed (Count)
system.workload.inst.quiesce                        0                       # number of quiesce instructions executed (Count)

---------- End Simulation Statistics   ----------
