
---------- Begin Simulation Statistics ----------
simSeconds                                   0.130588                       # Number of seconds simulated (Second)
simTicks                                 130588408206                       # Number of ticks simulated (Tick)
finalTick                                130588408206                       # Number of ticks from beginning of simulation (restored from checkpoints and never reset) (Tick)
simFreq                                  1000000000000                       # The number of ticks per simulated second ((Tick/Second))
hostSeconds                                   1168.65                       # Real time elapsed on the host (Second)
hostTickRate                                111742699                       # The number of ticks simulated per host second (ticks/s) ((Tick/Second))
hostMemory                                     770836                       # Number of bytes of host memory used (Byte)
simInsts                                    254069238                       # Number of instructions simulated (Count)
simOps                                      437843695                       # Number of ops (including micro ops) simulated (Count)
hostInstRate                                   217404                       # Simulator instruction rate (inst/s) ((Count/Second))
hostOpRate                                     374657                       # Simulator op (including micro ops) rate (op/s) ((Count/Second))
system.clk_domain.clock                          1000                       # Clock period in ticks (Tick)
system.cpu.numCycles                        392157383                       # Number of cpu cycles simulated (Cycle)
system.cpu.numWorkItemsStarted                      0                       # Number of work items this cpu started (Count)
system.cpu.numWorkItemsCompleted                    0                       # Number of work items this cpu completed (Count)
system.cpu.instsAdded                       438823106                       # Number of instructions added to the IQ (excludes non-spec) (Count)
system.cpu.nonSpecInstsAdded                      402                       # Number of non-speculative instructions added to the IQ (Count)
system.cpu.instsIssued                      438542266                       # Number of instructions issued (Count)
system.cpu.squashedInstsIssued                   2922                       # Number of squashed instructions issued (Count)
system.cpu.squashedInstsExamined               979807                       # Number of squashed instructions iterated over during squash; mainly for profiling (Count)
system.cpu.squashedOperandsExamined           1184418                       # Number of squashed operands that are examined and possibly removed from graph (Count)
system.cpu.squashedNonSpecRemoved                 183                       # Number of squashed non-spec instructions that were removed (Count)
system.cpu.numIssuedDist::samples           391935010                       # Number of insts issued each cycle (Count)
system.cpu.numIssuedDist::mean               1.118916                       # Number of insts issued each cycle (Count)
system.cpu.numIssuedDist::stdev              1.448881                       # Number of insts issued each cycle (Count)
system.cpu.numIssuedDist::underflows                0      0.00%      0.00% # Number of insts issued each cycle (Count)
system.cpu.numIssuedDist::0                 190679971     48.65%     48.65% # Number of insts issued each cycle (Count)
system.cpu.numIssuedDist::1                  74293329     18.96%     67.61% # Number of insts issued each cycle (Count)
system.cpu.numIssuedDist::2                  69676224     17.78%     85.38% # Number of insts issued each cycle (Count)
system.cpu.numIssuedDist::3                  28737666      7.33%     92.72% # Number of insts issued each cycle (Count)
system.cpu.numIssuedDist::4                  13221179      3.37%     96.09% # Number of insts issued each cycle (Count)
system.cpu.numIssuedDist::5                   8643654      2.21%     98.29% # Number of insts issued each cycle (Count)
system.cpu.numIssuedDist::6                   4868317      1.24%     99.54% # Number of insts issued each cycle (Count)
system.cpu.numIssuedDist::7                   1146757      0.29%     99.83% # Number of insts issued each cycle (Count)
system.cpu.numIssuedDist::8                    667913      0.17%    100.00% # Number of insts issued each cycle (Count)
system.cpu.numIssuedDist::overflows                 0      0.00%    100.00% # Number of insts issued each cycle (Count)
system.cpu.numIssuedDist::min_value                 0                       # Number of insts issued each cycle (Count)
system.cpu.numIssuedDist::max_value                 8                       # Number of insts issued each cycle (Count)
system.cpu.numIssuedDist::total             391935010                       # Number of insts issued each cycle (Count)
system.cpu.statFuBusy::No_OpClass                   0      0.00%      0.00% # attempts to use FU when none available (Count)
system.cpu.statFuBusy::IntAlu                  747884     99.66%     99.66% # attempts to use FU when none available (Count)
system.cpu.statFuBusy::IntMult                      0      0.00%     99.66% # attempts to use FU when none available (Count)
system.cpu.statFuBusy::IntDiv                       0      0.00%     99.66% # attempts to use FU when none available (Count)
system.cpu.statFuBusy::FloatAdd                     0      0.00%     99.66% # attempts to use FU when none available (Count)
system.cpu.statFuBusy::FloatCmp                     0      0.00%     99.66% # attempts to use FU when none available (Count)
system.cpu.statFuBusy::FloatCvt                     0      0.00%     99.66% # attempts to use FU when none available (Count)
system.cpu.statFuBusy::FloatMult                    0      0.00%     99.66% # attempts to use FU when none available (Count)
system.cpu.statFuBusy::FloatMultAcc                 0      0.00%     99.66% # attempts to use FU when none available (Count)
system.cpu.statFuBusy::FloatDiv                     0      0.00%     99.66% # attempts to use FU when none available (Count)
system.cpu.statFuBusy::FloatMisc                    0      0.00%     99.66% # attempts to use FU when none available (Count)
system.cpu.statFuBusy::FloatSqrt                    0      0.00%     99.66% # attempts to use FU when none available (Count)
system.cpu.statFuBusy::SimdAdd                      0      0.00%     99.66% # attempts to use FU when none available (Count)
system.cpu.statFuBusy::SimdAddAcc                   0      0.00%     99.66% # attempts to use FU when none available (Count)
system.cpu.statFuBusy::SimdAlu                     29      0.00%     99.67% # attempts to use FU when none available (Count)
system.cpu.statFuBusy::SimdCmp                      0      0.00%     99.67% # attempts to use FU when none available (Count)
system.cpu.statFuBusy::SimdCvt                     59      0.01%     99.67% # attempts to use FU when none available (Count)
system.cpu.statFuBusy::SimdMisc                     3      0.00%     99.67% # attempts to use FU when none available (Count)
system.cpu.statFuBusy::SimdMult                     0      0.00%     99.67% # attempts to use FU when none available (Count)
system.cpu.statFuBusy::SimdMultAcc                  0      0.00%     99.67% # attempts to use FU when none available (Count)
system.cpu.statFuBusy::SimdShift                    8      0.00%     99.67% # attempts to use FU when none available (Count)
system.cpu.statFuBusy::SimdShiftAcc                 0      0.00%     99.67% # attempts to use FU when none available (Count)
system.cpu.statFuBusy::SimdDiv                      0      0.00%     99.67% # attempts to use FU when none available (Count)
system.cpu.statFuBusy::SimdSqrt                     0      0.00%     99.67% # attempts to use FU when none available (Count)
system.cpu.statFuBusy::SimdFloatAdd                 0      0.00%     99.67% # attempts to use FU when none available (Count)
system.cpu.statFuBusy::SimdFloatAlu                 0      0.00%     99.67% # attempts to use FU when none available (Count)
system.cpu.statFuBusy::SimdFloatCmp                 0      0.00%     99.67% # attempts to use FU when none available (Count)
system.cpu.statFuBusy::SimdFloatCvt                 0      0.00%     99.67% # attempts to use FU when none available (Count)
system.cpu.statFuBusy::SimdFloatDiv                 0      0.00%     99.67% # attempts to use FU when none available (Count)
system.cpu.statFuBusy::SimdFloatMisc                0      0.00%     99.67% # attempts to use FU when none available (Count)
system.cpu.statFuBusy::SimdFloatMult                0      0.00%     99.67% # attempts to use FU when none available (Count)
system.cpu.statFuBusy::SimdFloatMultAcc             0      0.00%     99.67% # attempts to use FU when none available (Count)
system.cpu.statFuBusy::SimdFloatSqrt                0      0.00%     99.67% # attempts to use FU when none available (Count)
system.cpu.statFuBusy::SimdReduceAdd                0      0.00%     99.67% # attempts to use FU when none available (Count)
system.cpu.statFuBusy::SimdReduceAlu                0      0.00%     99.67% # attempts to use FU when none available (Count)
system.cpu.statFuBusy::SimdReduceCmp                0      0.00%     99.67% # attempts to use FU when none available (Count)
system.cpu.statFuBusy::SimdFloatReduceAdd            0      0.00%     99.67% # attempts to use FU when none available (Count)
system.cpu.statFuBusy::SimdFloatReduceCmp            0      0.00%     99.67% # attempts to use FU when none available (Count)
system.cpu.statFuBusy::SimdAes                      0      0.00%     99.67% # attempts to use FU when none available (Count)
system.cpu.statFuBusy::SimdAesMix                   0      0.00%     99.67% # attempts to use FU when none available (Count)
system.cpu.statFuBusy::SimdSha1Hash                 0      0.00%     99.67% # attempts to use FU when none available (Count)
system.cpu.statFuBusy::SimdSha1Hash2                0      0.00%     99.67% # attempts to use FU when none available (Count)
system.cpu.statFuBusy::SimdSha256Hash               0      0.00%     99.67% # attempts to use FU when none available (Count)
system.cpu.statFuBusy::SimdSha256Hash2              0      0.00%     99.67% # attempts to use FU when none available (Count)
system.cpu.statFuBusy::SimdShaSigma2                0      0.00%     99.67% # attempts to use FU when none available (Count)
system.cpu.statFuBusy::SimdShaSigma3                0      0.00%     99.67% # attempts to use FU when none available (Count)
system.cpu.statFuBusy::SimdPredAlu                  0      0.00%     99.67% # attempts to use FU when none available (Count)
system.cpu.statFuBusy::MemRead                   1627      0.22%     99.89% # attempts to use FU when none available (Count)
system.cpu.statFuBusy::MemWrite                   649      0.09%     99.98% # attempts to use FU when none available (Count)
system.cpu.statFuBusy::FloatMemRead                94      0.01%     99.99% # attempts to use FU when none available (Count)
system.cpu.statFuBusy::FloatMemWrite               69      0.01%    100.00% # attempts to use FU when none available (Count)
system.cpu.statFuBusy::IprAccess                    0      0.00%    100.00% # attempts to use FU when none available (Count)
system.cpu.statFuBusy::InstPrefetch                 0      0.00%    100.00% # attempts to use FU when none available (Count)
system.cpu.statIssuedInstType_0::No_OpClass      4206389      0.96%      0.96% # Number of instructions issued per FU type, per thread (Count)
system.cpu.statIssuedInstType_0::IntAlu     178155492     40.62%     41.58% # Number of instructions issued per FU type, per thread (Count)
system.cpu.statIssuedInstType_0::IntMult          114      0.00%     41.58% # Number of instructions issued per FU type, per thread (Count)
system.cpu.statIssuedInstType_0::IntDiv          2309      0.00%     41.58% # Number of instructions issued per FU type, per thread (Count)
system.cpu.statIssuedInstType_0::FloatAdd     12596213      2.87%     44.46% # Number of instructions issued per FU type, per thread (Count)
system.cpu.statIssuedInstType_0::FloatCmp            0      0.00%     44.46% # Number of instructions issued per FU type, per thread (Count)
system.cpu.statIssuedInstType_0::FloatCvt           96      0.00%     44.46% # Number of instructions issued per FU type, per thread (Count)
system.cpu.statIssuedInstType_0::FloatMult            0      0.00%     44.46% # Number of instructions issued per FU type, per thread (Count)
system.cpu.statIssuedInstType_0::FloatMultAcc            0      0.00%     44.46% # Number of instructions issued per FU type, per thread (Count)
system.cpu.statIssuedInstType_0::FloatDiv            0      0.00%     44.46% # Number of instructions issued per FU type, per thread (Count)
system.cpu.statIssuedInstType_0::FloatMisc            0      0.00%     44.46% # Number of instructions issued per FU type, per thread (Count)
system.cpu.statIssuedInstType_0::FloatSqrt            0      0.00%     44.46% # Number of instructions issued per FU type, per thread (Count)
system.cpu.statIssuedInstType_0::SimdAdd          955      0.00%     44.46% # Number of instructions issued per FU type, per thread (Count)
system.cpu.statIssuedInstType_0::SimdAddAcc            0      0.00%     44.46% # Number of instructions issued per FU type, per thread (Count)
system.cpu.statIssuedInstType_0::SimdAlu     35676748      8.14%     52.59% # Number of instructions issued per FU type, per thread (Count)
system.cpu.statIssuedInstType_0::SimdCmp            0      0.00%     52.59% # Number of instructions issued per FU type, per thread (Count)
system.cpu.statIssuedInstType_0::SimdCvt         2692      0.00%     52.59% # Number of instructions issued per FU type, per thread (Count)
system.cpu.statIssuedInstType_0::SimdMisc     34613307      7.89%     60.49% # Number of instructions issued per FU type, per thread (Count)
system.cpu.statIssuedInstType_0::SimdMult            0      0.00%     60.49% # Number of instructions issued per FU type, per thread (Count)
system.cpu.statIssuedInstType_0::SimdMultAcc            0      0.00%     60.49% # Number of instructions issued per FU type, per thread (Count)
system.cpu.statIssuedInstType_0::SimdShift          922      0.00%     60.49% # Number of instructions issued per FU type, per thread (Count)
system.cpu.statIssuedInstType_0::SimdShiftAcc            0      0.00%     60.49% # Number of instructions issued per FU type, per thread (Count)
system.cpu.statIssuedInstType_0::SimdDiv            0      0.00%     60.49% # Number of instructions issued per FU type, per thread (Count)
system.cpu.statIssuedInstType_0::SimdSqrt            0      0.00%     60.49% # Number of instructions issued per FU type, per thread (Count)
system.cpu.statIssuedInstType_0::SimdFloatAdd     28317714      6.46%     66.94% # Number of instructions issued per FU type, per thread (Count)
system.cpu.statIssuedInstType_0::SimdFloatAlu            0      0.00%     66.94% # Number of instructions issued per FU type, per thread (Count)
system.cpu.statIssuedInstType_0::SimdFloatCmp            0      0.00%     66.94% # Number of instructions issued per FU type, per thread (Count)
system.cpu.statIssuedInstType_0::SimdFloatCvt     35661853      8.13%     75.07% # Number of instructions issued per FU type, per thread (Count)
system.cpu.statIssuedInstType_0::SimdFloatDiv            0      0.00%     75.07% # Number of instructions issued per FU type, per thread (Count)
system.cpu.statIssuedInstType_0::SimdFloatMisc            0      0.00%     75.07% # Number of instructions issued per FU type, per thread (Count)
system.cpu.statIssuedInstType_0::SimdFloatMult     56639513     12.92%     87.99% # Number of instructions issued per FU type, per thread (Count)
system.cpu.statIssuedInstType_0::SimdFloatMultAcc            0      0.00%     87.99% # Number of instructions issued per FU type, per thread (Count)
system.cpu.statIssuedInstType_0::SimdFloatSqrt            0      0.00%     87.99% # Number of instructions issued per FU type, per thread (Count)
system.cpu.statIssuedInstType_0::SimdReduceAdd            0      0.00%     87.99% # Number of instructions issued per FU type, per thread (Count)
system.cpu.statIssuedInstType_0::SimdReduceAlu            0      0.00%     87.99% # Number of instructions issued per FU type, per thread (Count)
system.cpu.statIssuedInstType_0::SimdReduceCmp            0      0.00%     87.99% # Number of instructions issued per FU type, per thread (Count)
system.cpu.statIssuedInstType_0::SimdFloatReduceAdd            0      0.00%     87.99% # Number of instructions issued per FU type, per thread (Count)
system.cpu.statIssuedInstType_0::SimdFloatReduceCmp            0      0.00%     87.99% # Number of instructions issued per FU type, per thread (Count)
system.cpu.statIssuedInstType_0::SimdAes            0      0.00%     87.99% # Number of instructions issued per FU type, per thread (Count)
system.cpu.statIssuedInstType_0::SimdAesMix            0      0.00%     87.99% # Number of instructions issued per FU type, per thread (Count)
system.cpu.statIssuedInstType_0::SimdSha1Hash            0      0.00%     87.99% # Number of instructions issued per FU type, per thread (Count)
system.cpu.statIssuedInstType_0::SimdSha1Hash2            0      0.00%     87.99% # Number of instructions issued per FU type, per thread (Count)
system.cpu.statIssuedInstType_0::SimdSha256Hash            0      0.00%     87.99% # Number of instructions issued per FU type, per thread (Count)
system.cpu.statIssuedInstType_0::SimdSha256Hash2            0      0.00%     87.99% # Number of instructions issued per FU type, per thread (Count)
system.cpu.statIssuedInstType_0::SimdShaSigma2            0      0.00%     87.99% # Number of instructions issued per FU type, per thread (Count)
system.cpu.statIssuedInstType_0::SimdShaSigma3            0      0.00%     87.99% # Number of instructions issued per FU type, per thread (Count)
system.cpu.statIssuedInstType_0::SimdPredAlu            0      0.00%     87.99% # Number of instructions issued per FU type, per thread (Count)
system.cpu.statIssuedInstType_0::MemRead     20073242      4.58%     92.57% # Number of instructions issued per FU type, per thread (Count)
system.cpu.statIssuedInstType_0::MemWrite     14747681      3.36%     95.93% # Number of instructions issued per FU type, per thread (Count)
system.cpu.statIssuedInstType_0::FloatMemRead     17844558      4.07%    100.00% # Number of instructions issued per FU type, per thread (Count)
system.cpu.statIssuedInstType_0::FloatMemWrite         2468      0.00%    100.00% # Number of instructions issued per FU type, per thread (Count)
system.cpu.statIssuedInstType_0::IprAccess            0      0.00%    100.00% # Number of instructions issued per FU type, per thread (Count)
system.cpu.statIssuedInstType_0::InstPrefetch            0      0.00%    100.00% # Number of instructions issued per FU type, per thread (Count)
system.cpu.statIssuedInstType_0::total      438542266                       # Number of instructions issued per FU type, per thread (Count)
system.cpu.issueRate                         1.118281                       # Inst issue rate ((Count/Cycle))
system.cpu.fuBusy                              750422                       # FU busy when requested (Count)
system.cpu.fuBusyRate                        0.001711                       # FU busy rate (busy events/executed inst) ((Count/Count))
system.cpu.intInstQueueReads                709550863                       # Number of integer instruction queue reads (Count)
system.cpu.intInstQueueWrites               159316257                       # Number of integer instruction queue writes (Count)
system.cpu.intInstQueueWakeupAccesses       158398157                       # Number of integer instruction queue wakeup accesses (Count)
system.cpu.fpInstQueueReads                 560222023                       # Number of floating instruction queue reads (Count)
system.cpu.fpInstQueueWrites                280487257                       # Number of floating instruction queue writes (Count)
system.cpu.fpInstQueueWakeupAccesses        280105346                       # Number of floating instruction queue wakeup accesses (Count)
system.cpu.vecInstQueueReads                        0                       # Number of vector instruction queue reads (Count)
system.cpu.vecInstQueueWrites                       0                       # Number of vector instruction queue writes (Count)
system.cpu.vecInstQueueWakeupAccesses               0                       # Number of vector instruction queue wakeup accesses (Count)
system.cpu.intAluAccesses                   154975223                       # Number of integer alu accesses (Count)
system.cpu.fpAluAccesses                    280111076                       # Number of floating point alu accesses (Count)
system.cpu.vecAluAccesses                           0                       # Number of vector alu accesses (Count)
system.cpu.numInsts                         438526318                       # Number of executed instructions (Count)
system.cpu.numLoadInsts                      37913994                       # Number of load instructions executed (Count)
system.cpu.numSquashedInsts                     15948                       # Number of squashed instructions skipped in execute (Count)
system.cpu.numSwp                                   0                       # Number of swp insts executed (Count)
system.cpu.numNop                                   0                       # Number of nop insts executed (Count)
system.cpu.numRefs                           52663439                       # Number of memory reference insts executed (Count)
system.cpu.numBranches                       15839556                       # Number of branches executed (Count)
system.cpu.numStoreInsts                     14749445                       # Number of stores executed (Count)
system.cpu.numRate                           1.118241                       # Inst execution rate ((Count/Cycle))
system.cpu.timesIdled                            1105                       # Number of times that the entire CPU went into an idle state and unscheduled itself (Count)
system.cpu.idleCycles                          222373                       # Total number of cycles that the CPU has spent unscheduled due to idling (Cycle)
system.cpu.committedInsts                   254069238                       # Number of Instructions Simulated (Count)
system.cpu.committedOps                     437843695                       # Number of Ops (including micro ops) Simulated (Count)
system.cpu.cpi                               1.543506                       # CPI: Cycles Per Instruction ((Cycle/Count))
system.cpu.totalCpi                          1.543506                       # CPI: Total CPI of All Threads ((Cycle/Count))
system.cpu.ipc                               0.647876                       # IPC: Instructions Per Cycle ((Count/Cycle))
system.cpu.totalIpc                          0.647876                       # IPC: Total IPC of All Threads ((Count/Cycle))
system.cpu.intRegfileReads                  246881673                       # Number of integer regfile reads (Count)
system.cpu.intRegfileWrites                 134022726                       # Number of integer regfile writes (Count)
system.cpu.fpRegfileReads                   549680995                       # Number of floating regfile reads (Count)
system.cpu.fpRegfileWrites                  262274027                       # Number of floating regfile writes (Count)
system.cpu.ccRegfileReads                    49849990                       # number of cc regfile reads (Count)
system.cpu.ccRegfileWrites                   67599020                       # number of cc regfile writes (Count)
system.cpu.miscRegfileReads                  98011235                       # number of misc regfile reads (Count)
system.cpu.miscRegfileWrites                       54                       # number of misc regfile writes (Count)
system.cpu.MemDepUnit__0.insertedLoads       37950105                       # Number of loads inserted to the mem dependence unit. (Count)
system.cpu.MemDepUnit__0.insertedStores      14778805                       # Number of stores inserted to the mem dependence unit. (Count)
system.cpu.MemDepUnit__0.conflictingLoads      9217577                       # Number of conflicting loads. (Count)
system.cpu.MemDepUnit__0.conflictingStores      8162821                       # Number of conflicting stores. (Count)
system.cpu.MemDepUnit__1.insertedLoads              0                       # Number of loads inserted to the mem dependence unit. (Count)
system.cpu.MemDepUnit__1.insertedStores             0                       # Number of stores inserted to the mem dependence unit. (Count)
system.cpu.MemDepUnit__1.conflictingLoads            0                       # Number of conflicting loads. (Count)
system.cpu.MemDepUnit__1.conflictingStores            0                       # Number of conflicting stores. (Count)
system.cpu.MemDepUnit__2.insertedLoads              0                       # Number of loads inserted to the mem dependence unit. (Count)
system.cpu.MemDepUnit__2.insertedStores             0                       # Number of stores inserted to the mem dependence unit. (Count)
system.cpu.MemDepUnit__2.conflictingLoads            0                       # Number of conflicting loads. (Count)
system.cpu.MemDepUnit__2.conflictingStores            0                       # Number of conflicting stores. (Count)
system.cpu.MemDepUnit__3.insertedLoads              0                       # Number of loads inserted to the mem dependence unit. (Count)
system.cpu.MemDepUnit__3.insertedStores             0                       # Number of stores inserted to the mem dependence unit. (Count)
system.cpu.MemDepUnit__3.conflictingLoads            0                       # Number of conflicting loads. (Count)
system.cpu.MemDepUnit__3.conflictingStores            0                       # Number of conflicting stores. (Count)
system.cpu.branchPred.lookups                15888646                       # Number of BP lookups (Count)
system.cpu.branchPred.condPredicted           7469634                       # Number of conditional branches predicted (Count)
system.cpu.branchPred.condIncorrect              6834                       # Number of conditional branches incorrect (Count)
system.cpu.branchPred.BTBLookups             11625692                       # Number of BTB lookups (Count)
system.cpu.branchPred.BTBHits                11622920                       # Number of BTB hits (Count)
system.cpu.branchPred.BTBHitRatio            0.999762                       # BTB Hit Ratio (Ratio)
system.cpu.branchPred.RASUsed                 4201096                       # Number of times the RAS was used to get a target. (Count)
system.cpu.branchPred.RASIncorrect                  5                       # Number of incorrect RAS predictions. (Count)
system.cpu.branchPred.indirectLookups            3553                       # Number of indirect predictor lookups. (Count)
system.cpu.branchPred.indirectHits                504                       # Number of indirect target hits. (Count)
system.cpu.branchPred.indirectMisses             3049                       # Number of indirect misses. (Count)
system.cpu.branchPred.indirectMispredicted          574                       # Number of mispredicted indirect branches. (Count)
system.cpu.commit.commitSquashedInsts          921324                       # The number of squashed insts skipped by commit (Count)
system.cpu.commit.commitNonSpecStalls             219                       # The number of times commit has been forced to stall to communicate backwards (Count)
system.cpu.commit.branchMispredicts              6905                       # The number of times a branch was mispredicted (Count)
system.cpu.commit.numCommittedDist::samples    391811162                       # Number of insts commited each cycle (Count)
system.cpu.commit.numCommittedDist::mean     1.117487                       # Number of insts commited each cycle (Count)
system.cpu.commit.numCommittedDist::stdev     1.845909                       # Number of insts commited each cycle (Count)
system.cpu.commit.numCommittedDist::underflows            0      0.00%      0.00% # Number of insts commited each cycle (Count)
system.cpu.commit.numCommittedDist::0       201262654     51.37%     51.37% # Number of insts commited each cycle (Count)
system.cpu.commit.numCommittedDist::1       109418655     27.93%     79.29% # Number of insts commited each cycle (Count)
system.cpu.commit.numCommittedDist::2        21513212      5.49%     84.78% # Number of insts commited each cycle (Count)
system.cpu.commit.numCommittedDist::3        26835002      6.85%     91.63% # Number of insts commited each cycle (Count)
system.cpu.commit.numCommittedDist::4         9804834      2.50%     94.14% # Number of insts commited each cycle (Count)
system.cpu.commit.numCommittedDist::5         4992232      1.27%     95.41% # Number of insts commited each cycle (Count)
system.cpu.commit.numCommittedDist::6         1051504      0.27%     95.68% # Number of insts commited each cycle (Count)
system.cpu.commit.numCommittedDist::7         1060462      0.27%     95.95% # Number of insts commited each cycle (Count)
system.cpu.commit.numCommittedDist::8        15872607      4.05%    100.00% # Number of insts commited each cycle (Count)
system.cpu.commit.numCommittedDist::overflows            0      0.00%    100.00% # Number of insts commited each cycle (Count)
system.cpu.commit.numCommittedDist::min_value            0                       # Number of insts commited each cycle (Count)
system.cpu.commit.numCommittedDist::max_value            8                       # Number of insts commited each cycle (Count)
system.cpu.commit.numCommittedDist::total    391811162                       # Number of insts commited each cycle (Count)
system.cpu.commit.instsCommitted            254069238                       # Number of instructions committed (Count)
system.cpu.commit.opsCommitted              437843695                       # Number of ops (including micro ops) committed (Count)
system.cpu.commit.memRefs                    52549727                       # Number of memory references committed (Count)
system.cpu.commit.loads                      37831133                       # Number of loads committed (Count)
system.cpu.commit.amos                              0                       # Number of atomic instructions committed (Count)
system.cpu.commit.membars                         110                       # Number of memory barriers committed (Count)
system.cpu.commit.branches                   15793906                       # Number of branches committed (Count)
system.cpu.commit.vectorInstructions                0                       # Number of committed Vector instructions. (Count)
system.cpu.commit.floating                  279981463                       # Number of committed floating point instructions. (Count)
system.cpu.commit.integer                   206098339                       # Number of committed integer instructions. (Count)
system.cpu.commit.functionCalls               4195813                       # Number of function calls committed. (Count)
system.cpu.commit.committedInstType_0::No_OpClass      4196740      0.96%      0.96% # Class of committed instruction (Count)
system.cpu.commit.committedInstType_0::IntAlu    177664494     40.58%     41.54% # Class of committed instruction (Count)
system.cpu.commit.committedInstType_0::IntMult           94      0.00%     41.54% # Class of committed instruction (Count)
system.cpu.commit.committedInstType_0::IntDiv         2069      0.00%     41.54% # Class of committed instruction (Count)
system.cpu.commit.committedInstType_0::FloatAdd     12583500      2.87%     44.41% # Class of committed instruction (Count)
system.cpu.commit.committedInstType_0::FloatCmp            0      0.00%     44.41% # Class of committed instruction (Count)
system.cpu.commit.committedInstType_0::FloatCvt           96      0.00%     44.41% # Class of committed instruction (Count)
system.cpu.commit.committedInstType_0::FloatMult            0      0.00%     44.41% # Class of committed instruction (Count)
system.cpu.commit.committedInstType_0::FloatMultAcc            0      0.00%     44.41% # Class of committed instruction (Count)
system.cpu.commit.committedInstType_0::FloatDiv            0      0.00%     44.41% # Class of committed instruction (Count)
system.cpu.commit.committedInstType_0::FloatMisc            0      0.00%     44.41% # Class of committed instruction (Count)
system.cpu.commit.committedInstType_0::FloatSqrt            0      0.00%     44.41% # Class of committed instruction (Count)
system.cpu.commit.committedInstType_0::SimdAdd          694      0.00%     44.41% # Class of committed instruction (Count)
system.cpu.commit.committedInstType_0::SimdAddAcc            0      0.00%     44.41% # Class of committed instruction (Count)
system.cpu.commit.committedInstType_0::SimdAlu     35653129      8.14%     52.55% # Class of committed instruction (Count)
system.cpu.commit.committedInstType_0::SimdCmp            0      0.00%     52.55% # Class of committed instruction (Count)
system.cpu.commit.committedInstType_0::SimdCvt         1748      0.00%     52.55% # Class of committed instruction (Count)
system.cpu.commit.committedInstType_0::SimdMisc     34604752      7.90%     60.46% # Class of committed instruction (Count)
system.cpu.commit.committedInstType_0::SimdMult            0      0.00%     60.46% # Class of committed instruction (Count)
system.cpu.commit.committedInstType_0::SimdMultAcc            0      0.00%     60.46% # Class of committed instruction (Count)
system.cpu.commit.committedInstType_0::SimdShift          340      0.00%     60.46% # Class of committed instruction (Count)
system.cpu.commit.committedInstType_0::SimdShiftAcc            0      0.00%     60.46% # Class of committed instruction (Count)
system.cpu.commit.committedInstType_0::SimdDiv            0      0.00%     60.46% # Class of committed instruction (Count)
system.cpu.commit.committedInstType_0::SimdSqrt            0      0.00%     60.46% # Class of committed instruction (Count)
system.cpu.commit.committedInstType_0::SimdFloatAdd     28311570      6.47%     66.92% # Class of committed instruction (Count)
system.cpu.commit.committedInstType_0::SimdFloatAlu            0      0.00%     66.92% # Class of committed instruction (Count)
system.cpu.commit.committedInstType_0::SimdFloatCmp            0      0.00%     66.92% # Class of committed instruction (Count)
system.cpu.commit.committedInstType_0::SimdFloatCvt     35651613      8.14%     75.07% # Class of committed instruction (Count)
system.cpu.commit.committedInstType_0::SimdFloatDiv            0      0.00%     75.07% # Class of committed instruction (Count)
system.cpu.commit.committedInstType_0::SimdFloatMisc            0      0.00%     75.07% # Class of committed instruction (Count)
system.cpu.commit.committedInstType_0::SimdFloatMult     56623129     12.93%     88.00% # Class of committed instruction (Count)
system.cpu.commit.committedInstType_0::SimdFloatMultAcc            0      0.00%     88.00% # Class of committed instruction (Count)
system.cpu.commit.committedInstType_0::SimdFloatSqrt            0      0.00%     88.00% # Class of committed instruction (Count)
system.cpu.commit.committedInstType_0::SimdReduceAdd            0      0.00%     88.00% # Class of committed instruction (Count)
system.cpu.commit.committedInstType_0::SimdReduceAlu            0      0.00%     88.00% # Class of committed instruction (Count)
system.cpu.commit.committedInstType_0::SimdReduceCmp            0      0.00%     88.00% # Class of committed instruction (Count)
system.cpu.commit.committedInstType_0::SimdFloatReduceAdd            0      0.00%     88.00% # Class of committed instruction (Count)
system.cpu.commit.committedInstType_0::SimdFloatReduceCmp            0      0.00%     88.00% # Class of committed instruction (Count)
system.cpu.commit.committedInstType_0::SimdAes            0      0.00%     88.00% # Class of committed instruction (Count)
system.cpu.commit.committedInstType_0::SimdAesMix            0      0.00%     88.00% # Class of committed instruction (Count)
system.cpu.commit.committedInstType_0::SimdSha1Hash            0      0.00%     88.00% # Class of committed instruction (Count)
system.cpu.commit.committedInstType_0::SimdSha1Hash2            0      0.00%     88.00% # Class of committed instruction (Count)
system.cpu.commit.committedInstType_0::SimdSha256Hash            0      0.00%     88.00% # Class of committed instruction (Count)
system.cpu.commit.committedInstType_0::SimdSha256Hash2            0      0.00%     88.00% # Class of committed instruction (Count)
system.cpu.commit.committedInstType_0::SimdShaSigma2            0      0.00%     88.00% # Class of committed instruction (Count)
system.cpu.commit.committedInstType_0::SimdShaSigma3            0      0.00%     88.00% # Class of committed instruction (Count)
system.cpu.commit.committedInstType_0::SimdPredAlu            0      0.00%     88.00% # Class of committed instruction (Count)
system.cpu.commit.committedInstType_0::MemRead     20003176      4.57%     92.57% # Class of committed instruction (Count)
system.cpu.commit.committedInstType_0::MemWrite     14716503      3.36%     95.93% # Class of committed instruction (Count)
system.cpu.commit.committedInstType_0::FloatMemRead     17827957      4.07%    100.00% # Class of committed instruction (Count)
system.cpu.commit.committedInstType_0::FloatMemWrite         2091      0.00%    100.00% # Class of committed instruction (Count)
system.cpu.commit.committedInstType_0::IprAccess            0      0.00%    100.00% # Class of committed instruction (Count)
system.cpu.commit.committedInstType_0::InstPrefetch            0      0.00%    100.00% # Class of committed instruction (Count)
system.cpu.commit.committedInstType_0::total    437843695                       # Class of committed instruction (Count)
system.cpu.commit.commitEligibleSamples      15872607                       # number cycles where commit BW limit reached (Cycle)
system.cpu.dcache.demandHits::cpu.data       40663992                       # number of demand (read+write) hits (Count)
system.cpu.dcache.demandHits::total          40663992                       # number of demand (read+write) hits (Count)
system.cpu.dcache.overallHits::cpu.data      40663992                       # number of overall hits (Count)
system.cpu.dcache.overallHits::total         40663992                       # number of overall hits (Count)
system.cpu.dcache.demandMisses::cpu.data      7216894                       # number of demand (read+write) misses (Count)
system.cpu.dcache.demandMisses::total         7216894                       # number of demand (read+write) misses (Count)
system.cpu.dcache.overallMisses::cpu.data      7216894                       # number of overall misses (Count)
system.cpu.dcache.overallMisses::total        7216894                       # number of overall misses (Count)
system.cpu.dcache.demandMissLatency::cpu.data 414435206606                       # number of demand (read+write) miss ticks (Tick)
system.cpu.dcache.demandMissLatency::total 414435206606                       # number of demand (read+write) miss ticks (Tick)
system.cpu.dcache.overallMissLatency::cpu.data 414435206606                       # number of overall miss ticks (Tick)
system.cpu.dcache.overallMissLatency::total 414435206606                       # number of overall miss ticks (Tick)
system.cpu.dcache.demandAccesses::cpu.data     47880886                       # number of demand (read+write) accesses (Count)
system.cpu.dcache.demandAccesses::total      47880886                       # number of demand (read+write) accesses (Count)
system.cpu.dcache.overallAccesses::cpu.data     47880886                       # number of overall (read+write) accesses (Count)
system.cpu.dcache.overallAccesses::total     47880886                       # number of overall (read+write) accesses (Count)
system.cpu.dcache.demandMissRate::cpu.data     0.150726                       # miss rate for demand accesses (Ratio)
system.cpu.dcache.demandMissRate::total      0.150726                       # miss rate for demand accesses (Ratio)
system.cpu.dcache.overallMissRate::cpu.data     0.150726                       # miss rate for overall accesses (Ratio)
system.cpu.dcache.overallMissRate::total     0.150726                       # miss rate for overall accesses (Ratio)
system.cpu.dcache.demandAvgMissLatency::cpu.data 57425.702332                       # average overall miss latency in ticks ((Tick/Count))
system.cpu.dcache.demandAvgMissLatency::total 57425.702332                       # average overall miss latency in ticks ((Tick/Count))
system.cpu.dcache.overallAvgMissLatency::cpu.data 57425.702332                       # average overall miss latency ((Tick/Count))
system.cpu.dcache.overallAvgMissLatency::total 57425.702332                       # average overall miss latency ((Tick/Count))
system.cpu.dcache.blockedCycles::no_mshrs        39693                       # number of cycles access was blocked (Cycle)
system.cpu.dcache.blockedCycles::no_targets            6                       # number of cycles access was blocked (Cycle)
system.cpu.dcache.blockedCauses::no_mshrs          596                       # number of times access was blocked (Count)
system.cpu.dcache.blockedCauses::no_targets            2                       # number of times access was blocked (Count)
system.cpu.dcache.avgBlocked::no_mshrs      66.598993                       # average number of cycles each access was blocked ((Cycle/Count))
system.cpu.dcache.avgBlocked::no_targets            3                       # average number of cycles each access was blocked ((Cycle/Count))
system.cpu.dcache.writebacks::writebacks      1933060                       # number of writebacks (Count)
system.cpu.dcache.writebacks::total           1933060                       # number of writebacks (Count)
system.cpu.dcache.demandMshrHits::cpu.data      4498321                       # number of demand (read+write) MSHR hits (Count)
system.cpu.dcache.demandMshrHits::total       4498321                       # number of demand (read+write) MSHR hits (Count)
system.cpu.dcache.overallMshrHits::cpu.data      4498321                       # number of overall MSHR hits (Count)
system.cpu.dcache.overallMshrHits::total      4498321                       # number of overall MSHR hits (Count)
system.cpu.dcache.demandMshrMisses::cpu.data      2718573                       # number of demand (read+write) MSHR misses (Count)
system.cpu.dcache.demandMshrMisses::total      2718573                       # number of demand (read+write) MSHR misses (Count)
system.cpu.dcache.overallMshrMisses::cpu.data      2718573                       # number of overall MSHR misses (Count)
system.cpu.dcache.overallMshrMisses::total      2718573                       # number of overall MSHR misses (Count)
system.cpu.dcache.demandMshrMissLatency::cpu.data 135168651707                       # number of demand (read+write) MSHR miss ticks (Tick)
system.cpu.dcache.demandMshrMissLatency::total 135168651707                       # number of demand (read+write) MSHR miss ticks (Tick)
system.cpu.dcache.overallMshrMissLatency::cpu.data 135168651707                       # number of overall MSHR miss ticks (Tick)
system.cpu.dcache.overallMshrMissLatency::total 135168651707                       # number of overall MSHR miss ticks (Tick)
system.cpu.dcache.demandMshrMissRate::cpu.data     0.056778                       # mshr miss ratio for demand accesses (Ratio)
system.cpu.dcache.demandMshrMissRate::total     0.056778                       # mshr miss ratio for demand accesses (Ratio)
system.cpu.dcache.overallMshrMissRate::cpu.data     0.056778                       # mshr miss ratio for overall accesses (Ratio)
system.cpu.dcache.overallMshrMissRate::total     0.056778                       # mshr miss ratio for overall accesses (Ratio)
system.cpu.dcache.demandAvgMshrMissLatency::cpu.data 49720.442198                       # average overall mshr miss latency ((Tick/Count))
system.cpu.dcache.demandAvgMshrMissLatency::total 49720.442198                       # average overall mshr miss latency ((Tick/Count))
system.cpu.dcache.overallAvgMshrMissLatency::cpu.data 49720.442198                       # average overall mshr miss latency ((Tick/Count))
system.cpu.dcache.overallAvgMshrMissLatency::total 49720.442198                       # average overall mshr miss latency ((Tick/Count))
system.cpu.dcache.replacements                2718057                       # number of replacements (Count)
system.cpu.dcache.LockedRMWReadReq.hits::cpu.data           55                       # number of LockedRMWReadReq hits (Count)
system.cpu.dcache.LockedRMWReadReq.hits::total           55                       # number of LockedRMWReadReq hits (Count)
system.cpu.dcache.LockedRMWReadReq.accesses::cpu.data           55                       # number of LockedRMWReadReq accesses(hits+misses) (Count)
system.cpu.dcache.LockedRMWReadReq.accesses::total           55                       # number of LockedRMWReadReq accesses(hits+misses) (Count)
system.cpu.dcache.LockedRMWReadReq.mshrMissLatency::cpu.data       146853                       # number of LockedRMWReadReq MSHR miss ticks (Tick)
system.cpu.dcache.LockedRMWReadReq.mshrMissLatency::total       146853                       # number of LockedRMWReadReq MSHR miss ticks (Tick)
system.cpu.dcache.LockedRMWReadReq.avgMshrMissLatency::cpu.data          inf                       # average LockedRMWReadReq mshr miss latency ((Tick/Count))
system.cpu.dcache.LockedRMWReadReq.avgMshrMissLatency::total          inf                       # average LockedRMWReadReq mshr miss latency ((Tick/Count))
system.cpu.dcache.LockedRMWWriteReq.hits::cpu.data           55                       # number of LockedRMWWriteReq hits (Count)
system.cpu.dcache.LockedRMWWriteReq.hits::total           55                       # number of LockedRMWWriteReq hits (Count)
system.cpu.dcache.LockedRMWWriteReq.accesses::cpu.data           55                       # number of LockedRMWWriteReq accesses(hits+misses) (Count)
system.cpu.dcache.LockedRMWWriteReq.accesses::total           55                       # number of LockedRMWWriteReq accesses(hits+misses) (Count)
system.cpu.dcache.ReadReq.hits::cpu.data     27752440                       # number of ReadReq hits (Count)
system.cpu.dcache.ReadReq.hits::total        27752440                       # number of ReadReq hits (Count)
system.cpu.dcache.ReadReq.misses::cpu.data      5409895                       # number of ReadReq misses (Count)
system.cpu.dcache.ReadReq.misses::total       5409895                       # number of ReadReq misses (Count)
system.cpu.dcache.ReadReq.missLatency::cpu.data 348482547621                       # number of ReadReq miss ticks (Tick)
system.cpu.dcache.ReadReq.missLatency::total 348482547621                       # number of ReadReq miss ticks (Tick)
system.cpu.dcache.ReadReq.accesses::cpu.data     33162335                       # number of ReadReq accesses(hits+misses) (Count)
system.cpu.dcache.ReadReq.accesses::total     33162335                       # number of ReadReq accesses(hits+misses) (Count)
system.cpu.dcache.ReadReq.missRate::cpu.data     0.163134                       # miss rate for ReadReq accesses (Ratio)
system.cpu.dcache.ReadReq.missRate::total     0.163134                       # miss rate for ReadReq accesses (Ratio)
system.cpu.dcache.ReadReq.avgMissLatency::cpu.data 64415.769182                       # average ReadReq miss latency ((Tick/Count))
system.cpu.dcache.ReadReq.avgMissLatency::total 64415.769182                       # average ReadReq miss latency ((Tick/Count))
system.cpu.dcache.ReadReq.mshrHits::cpu.data      4498309                       # number of ReadReq MSHR hits (Count)
system.cpu.dcache.ReadReq.mshrHits::total      4498309                       # number of ReadReq MSHR hits (Count)
system.cpu.dcache.ReadReq.mshrMisses::cpu.data       911586                       # number of ReadReq MSHR misses (Count)
system.cpu.dcache.ReadReq.mshrMisses::total       911586                       # number of ReadReq MSHR misses (Count)
system.cpu.dcache.ReadReq.mshrMissLatency::cpu.data  70419821022                       # number of ReadReq MSHR miss ticks (Tick)
system.cpu.dcache.ReadReq.mshrMissLatency::total  70419821022                       # number of ReadReq MSHR miss ticks (Tick)
system.cpu.dcache.ReadReq.mshrMissRate::cpu.data     0.027489                       # mshr miss rate for ReadReq accesses (Ratio)
system.cpu.dcache.ReadReq.mshrMissRate::total     0.027489                       # mshr miss rate for ReadReq accesses (Ratio)
system.cpu.dcache.ReadReq.avgMshrMissLatency::cpu.data 77249.783369                       # average ReadReq mshr miss latency ((Tick/Count))
system.cpu.dcache.ReadReq.avgMshrMissLatency::total 77249.783369                       # average ReadReq mshr miss latency ((Tick/Count))
system.cpu.dcache.WriteReq.hits::cpu.data     12911552                       # number of WriteReq hits (Count)
system.cpu.dcache.WriteReq.hits::total       12911552                       # number of WriteReq hits (Count)
system.cpu.dcache.WriteReq.misses::cpu.data      1806999                       # number of WriteReq misses (Count)
system.cpu.dcache.WriteReq.misses::total      1806999                       # number of WriteReq misses (Count)
system.cpu.dcache.WriteReq.missLatency::cpu.data  65952658985                       # number of WriteReq miss ticks (Tick)
system.cpu.dcache.WriteReq.missLatency::total  65952658985                       # number of WriteReq miss ticks (Tick)
system.cpu.dcache.WriteReq.accesses::cpu.data     14718551                       # number of WriteReq accesses(hits+misses) (Count)
system.cpu.dcache.WriteReq.accesses::total     14718551                       # number of WriteReq accesses(hits+misses) (Count)
system.cpu.dcache.WriteReq.missRate::cpu.data     0.122770                       # miss rate for WriteReq accesses (Ratio)
system.cpu.dcache.WriteReq.missRate::total     0.122770                       # miss rate for WriteReq accesses (Ratio)
system.cpu.dcache.WriteReq.avgMissLatency::cpu.data 36498.447971                       # average WriteReq miss latency ((Tick/Count))
system.cpu.dcache.WriteReq.avgMissLatency::total 36498.447971                       # average WriteReq miss latency ((Tick/Count))
system.cpu.dcache.WriteReq.mshrHits::cpu.data           12                       # number of WriteReq MSHR hits (Count)
system.cpu.dcache.WriteReq.mshrHits::total           12                       # number of WriteReq MSHR hits (Count)
system.cpu.dcache.WriteReq.mshrMisses::cpu.data      1806987                       # number of WriteReq MSHR misses (Count)
system.cpu.dcache.WriteReq.mshrMisses::total      1806987                       # number of WriteReq MSHR misses (Count)
system.cpu.dcache.WriteReq.mshrMissLatency::cpu.data  64748830685                       # number of WriteReq MSHR miss ticks (Tick)
system.cpu.dcache.WriteReq.mshrMissLatency::total  64748830685                       # number of WriteReq MSHR miss ticks (Tick)
system.cpu.dcache.WriteReq.mshrMissRate::cpu.data     0.122769                       # mshr miss rate for WriteReq accesses (Ratio)
system.cpu.dcache.WriteReq.mshrMissRate::total     0.122769                       # mshr miss rate for WriteReq accesses (Ratio)
system.cpu.dcache.WriteReq.avgMshrMissLatency::cpu.data 35832.482849                       # average WriteReq mshr miss latency ((Tick/Count))
system.cpu.dcache.WriteReq.avgMshrMissLatency::total 35832.482849                       # average WriteReq mshr miss latency ((Tick/Count))
system.cpu.dcache.power_state.pwrStateResidencyTicks::UNDEFINED 130588408206                       # Cumulative time (in ticks) in various power states (Tick)
system.cpu.dcache.tags.tagsInUse           511.881258                       # Average ticks per tags in use ((Tick/Count))
system.cpu.dcache.tags.totalRefs             43382675                       # Total number of references to valid blocks. (Count)
system.cpu.dcache.tags.sampledRefs            2718569                       # Sample count of references to valid blocks. (Count)
system.cpu.dcache.tags.avgRefs              15.957908                       # Average number of references to valid blocks. ((Count/Count))
system.cpu.dcache.tags.warmupTick              189144                       # The tick when the warmup percentage was hit. (Tick)
system.cpu.dcache.tags.occupancies::cpu.data   511.881258                       # Average occupied blocks per tick, per requestor ((Count/Tick))
system.cpu.dcache.tags.avgOccs::cpu.data     0.999768                       # Average percentage of cache occupancy ((Ratio/Tick))
system.cpu.dcache.tags.avgOccs::total        0.999768                       # Average percentage of cache occupancy ((Ratio/Tick))
system.cpu.dcache.tags.occupanciesTaskId::1024          512                       # Occupied blocks per task id (Count)
system.cpu.dcache.tags.ageTaskId_1024::0           74                       # Occupied blocks per task id, per block age (Count)
system.cpu.dcache.tags.ageTaskId_1024::1          431                       # Occupied blocks per task id, per block age (Count)
system.cpu.dcache.tags.ageTaskId_1024::3            1                       # Occupied blocks per task id, per block age (Count)
system.cpu.dcache.tags.ageTaskId_1024::4            6                       # Occupied blocks per task id, per block age (Count)
system.cpu.dcache.tags.ratioOccsTaskId::1024            1                       # Ratio of occupied blocks and all blocks, per task id (Ratio)
system.cpu.dcache.tags.tagAccesses          385766537                       # Number of tag accesses (Count)
system.cpu.dcache.tags.dataAccesses         385766537                       # Number of data accesses (Count)
system.cpu.dcache.tags.power_state.pwrStateResidencyTicks::UNDEFINED 130588408206                       # Cumulative time (in ticks) in various power states (Tick)
system.cpu.decode.idleCycles                 16579153                       # Number of cycles decode is idle (Cycle)
system.cpu.decode.blockedCycles             320320782                       # Number of cycles decode is blocked (Cycle)
system.cpu.decode.runCycles                   9277813                       # Number of cycles decode is running (Cycle)
system.cpu.decode.unblockCycles              45745832                       # Number of cycles decode is unblocking (Cycle)
system.cpu.decode.squashCycles                  11430                       # Number of cycles decode is squashing (Cycle)
system.cpu.decode.branchResolved             11613496                       # Number of times decode resolved a branch (Count)
system.cpu.decode.branchMispred                   838                       # Number of times decode detected a branch misprediction (Count)
system.cpu.decode.decodedInsts              438932598                       # Number of instructions handled by decode (Count)
system.cpu.decode.squashedInsts                  3970                       # Number of squashed instructions handled by decode (Count)
system.cpu.dtb_walker_cache.blockedCycles::no_mshrs            0                       # number of cycles access was blocked (Cycle)
system.cpu.dtb_walker_cache.blockedCycles::no_targets            0                       # number of cycles access was blocked (Cycle)
system.cpu.dtb_walker_cache.blockedCauses::no_mshrs            0                       # number of times access was blocked (Count)
system.cpu.dtb_walker_cache.blockedCauses::no_targets            0                       # number of times access was blocked (Count)
system.cpu.dtb_walker_cache.avgBlocked::no_mshrs          nan                       # average number of cycles each access was blocked ((Cycle/Count))
system.cpu.dtb_walker_cache.avgBlocked::no_targets          nan                       # average number of cycles each access was blocked ((Cycle/Count))
system.cpu.dtb_walker_cache.replacements            0                       # number of replacements (Count)
system.cpu.dtb_walker_cache.power_state.pwrStateResidencyTicks::UNDEFINED 130588408206                       # Cumulative time (in ticks) in various power states (Tick)
system.cpu.dtb_walker_cache.tags.tagsInUse            0                       # Average ticks per tags in use ((Tick/Count))
system.cpu.dtb_walker_cache.tags.totalRefs            0                       # Total number of references to valid blocks. (Count)
system.cpu.dtb_walker_cache.tags.sampledRefs            0                       # Sample count of references to valid blocks. (Count)
system.cpu.dtb_walker_cache.tags.avgRefs          nan                       # Average number of references to valid blocks. ((Count/Count))
system.cpu.dtb_walker_cache.tags.warmupTick            0                       # The tick when the warmup percentage was hit. (Tick)
system.cpu.dtb_walker_cache.tags.tagAccesses            0                       # Number of tag accesses (Count)
system.cpu.dtb_walker_cache.tags.dataAccesses            0                       # Number of data accesses (Count)
system.cpu.dtb_walker_cache.tags.power_state.pwrStateResidencyTicks::UNDEFINED 130588408206                       # Cumulative time (in ticks) in various power states (Tick)
system.cpu.fetch.icacheStallCycles           32734854                       # Number of cycles fetch is stalled on an Icache miss (Cycle)
system.cpu.fetch.insts                      254837010                       # Number of instructions fetch has processed (Count)
system.cpu.fetch.branches                    15888646                       # Number of branches that fetch encountered (Count)
system.cpu.fetch.predictedBranches           15824520                       # Number of branches that fetch has predicted taken (Count)
system.cpu.fetch.cycles                     359180708                       # Number of cycles fetch has run and was not squashing or blocked (Cycle)
system.cpu.fetch.squashCycles                   24498                       # Number of cycles fetch has spent squashing (Cycle)
system.cpu.fetch.tlbCycles                         16                       # Number of cycles fetch has spent waiting for tlb (Cycle)
system.cpu.fetch.miscStallCycles                  935                       # Number of cycles fetch has spent waiting on interrupts, or bad addresses, or out of MSHRs (Cycle)
system.cpu.fetch.pendingTrapStallCycles          6227                       # Number of stall cycles due to pending traps (Cycle)
system.cpu.fetch.icacheWaitRetryStallCycles           21                       # Number of stall cycles due to full MSHR (Cycle)
system.cpu.fetch.cacheLines                  32657646                       # Number of cache lines fetched (Count)
system.cpu.fetch.icacheSquashes                  2491                       # Number of outstanding Icache misses that were squashed (Count)
system.cpu.fetch.nisnDist::samples          391935010                       # Number of instructions fetched each cycle (Total) (Count)
system.cpu.fetch.nisnDist::mean              1.120486                       # Number of instructions fetched each cycle (Total) (Count)
system.cpu.fetch.nisnDist::stdev             2.508822                       # Number of instructions fetched each cycle (Total) (Count)
system.cpu.fetch.nisnDist::underflows               0      0.00%      0.00% # Number of instructions fetched each cycle (Total) (Count)
system.cpu.fetch.nisnDist::0                314896833     80.34%     80.34% # Number of instructions fetched each cycle (Total) (Count)
system.cpu.fetch.nisnDist::1                  5400031      1.38%     81.72% # Number of instructions fetched each cycle (Total) (Count)
system.cpu.fetch.nisnDist::2                  6048488      1.54%     83.27% # Number of instructions fetched each cycle (Total) (Count)
system.cpu.fetch.nisnDist::3                  7595424      1.94%     85.20% # Number of instructions fetched each cycle (Total) (Count)
system.cpu.fetch.nisnDist::4                  4914492      1.25%     86.46% # Number of instructions fetched each cycle (Total) (Count)
system.cpu.fetch.nisnDist::5                  8415236      2.15%     88.60% # Number of instructions fetched each cycle (Total) (Count)
system.cpu.fetch.nisnDist::6                  8062019      2.06%     90.66% # Number of instructions fetched each cycle (Total) (Count)
system.cpu.fetch.nisnDist::7                  4051678      1.03%     91.69% # Number of instructions fetched each cycle (Total) (Count)
system.cpu.fetch.nisnDist::8                 32550809      8.31%    100.00% # Number of instructions fetched each cycle (Total) (Count)
system.cpu.fetch.nisnDist::overflows                0      0.00%    100.00% # Number of instructions fetched each cycle (Total) (Count)
system.cpu.fetch.nisnDist::min_value                0                       # Number of instructions fetched each cycle (Total) (Count)
system.cpu.fetch.nisnDist::max_value                8                       # Number of instructions fetched each cycle (Total) (Count)
system.cpu.fetch.nisnDist::total            391935010                       # Number of instructions fetched each cycle (Total) (Count)
system.cpu.fetch.branchRate                  0.040516                       # Number of branch fetches per cycle (Ratio)
system.cpu.fetch.rate                        0.649834                       # Number of inst fetches per cycle ((Count/Cycle))
system.cpu.icache.demandHits::cpu.inst       32655358                       # number of demand (read+write) hits (Count)
system.cpu.icache.demandHits::total          32655358                       # number of demand (read+write) hits (Count)
system.cpu.icache.overallHits::cpu.inst      32655358                       # number of overall hits (Count)
system.cpu.icache.overallHits::total         32655358                       # number of overall hits (Count)
system.cpu.icache.demandMisses::cpu.inst         2288                       # number of demand (read+write) misses (Count)
system.cpu.icache.demandMisses::total            2288                       # number of demand (read+write) misses (Count)
system.cpu.icache.overallMisses::cpu.inst         2288                       # number of overall misses (Count)
system.cpu.icache.overallMisses::total           2288                       # number of overall misses (Count)
system.cpu.icache.demandMissLatency::cpu.inst    188132345                       # number of demand (read+write) miss ticks (Tick)
system.cpu.icache.demandMissLatency::total    188132345                       # number of demand (read+write) miss ticks (Tick)
system.cpu.icache.overallMissLatency::cpu.inst    188132345                       # number of overall miss ticks (Tick)
system.cpu.icache.overallMissLatency::total    188132345                       # number of overall miss ticks (Tick)
system.cpu.icache.demandAccesses::cpu.inst     32657646                       # number of demand (read+write) accesses (Count)
system.cpu.icache.demandAccesses::total      32657646                       # number of demand (read+write) accesses (Count)
system.cpu.icache.overallAccesses::cpu.inst     32657646                       # number of overall (read+write) accesses (Count)
system.cpu.icache.overallAccesses::total     32657646                       # number of overall (read+write) accesses (Count)
system.cpu.icache.demandMissRate::cpu.inst     0.000070                       # miss rate for demand accesses (Ratio)
system.cpu.icache.demandMissRate::total      0.000070                       # miss rate for demand accesses (Ratio)
system.cpu.icache.overallMissRate::cpu.inst     0.000070                       # miss rate for overall accesses (Ratio)
system.cpu.icache.overallMissRate::total     0.000070                       # miss rate for overall accesses (Ratio)
system.cpu.icache.demandAvgMissLatency::cpu.inst 82225.675262                       # average overall miss latency in ticks ((Tick/Count))
system.cpu.icache.demandAvgMissLatency::total 82225.675262                       # average overall miss latency in ticks ((Tick/Count))
system.cpu.icache.overallAvgMissLatency::cpu.inst 82225.675262                       # average overall miss latency ((Tick/Count))
system.cpu.icache.overallAvgMissLatency::total 82225.675262                       # average overall miss latency ((Tick/Count))
system.cpu.icache.blockedCycles::no_mshrs         1423                       # number of cycles access was blocked (Cycle)
system.cpu.icache.blockedCycles::no_targets            0                       # number of cycles access was blocked (Cycle)
system.cpu.icache.blockedCauses::no_mshrs           11                       # number of times access was blocked (Count)
system.cpu.icache.blockedCauses::no_targets            0                       # number of times access was blocked (Count)
system.cpu.icache.avgBlocked::no_mshrs     129.363636                       # average number of cycles each access was blocked ((Cycle/Count))
system.cpu.icache.avgBlocked::no_targets          nan                       # average number of cycles each access was blocked ((Cycle/Count))
system.cpu.icache.writebacks::writebacks         1181                       # number of writebacks (Count)
system.cpu.icache.writebacks::total              1181                       # number of writebacks (Count)
system.cpu.icache.demandMshrHits::cpu.inst          594                       # number of demand (read+write) MSHR hits (Count)
system.cpu.icache.demandMshrHits::total           594                       # number of demand (read+write) MSHR hits (Count)
system.cpu.icache.overallMshrHits::cpu.inst          594                       # number of overall MSHR hits (Count)
system.cpu.icache.overallMshrHits::total          594                       # number of overall MSHR hits (Count)
system.cpu.icache.demandMshrMisses::cpu.inst         1694                       # number of demand (read+write) MSHR misses (Count)
system.cpu.icache.demandMshrMisses::total         1694                       # number of demand (read+write) MSHR misses (Count)
system.cpu.icache.overallMshrMisses::cpu.inst         1694                       # number of overall MSHR misses (Count)
system.cpu.icache.overallMshrMisses::total         1694                       # number of overall MSHR misses (Count)
system.cpu.icache.demandMshrMissLatency::cpu.inst    143816372                       # number of demand (read+write) MSHR miss ticks (Tick)
system.cpu.icache.demandMshrMissLatency::total    143816372                       # number of demand (read+write) MSHR miss ticks (Tick)
system.cpu.icache.overallMshrMissLatency::cpu.inst    143816372                       # number of overall MSHR miss ticks (Tick)
system.cpu.icache.overallMshrMissLatency::total    143816372                       # number of overall MSHR miss ticks (Tick)
system.cpu.icache.demandMshrMissRate::cpu.inst     0.000052                       # mshr miss ratio for demand accesses (Ratio)
system.cpu.icache.demandMshrMissRate::total     0.000052                       # mshr miss ratio for demand accesses (Ratio)
system.cpu.icache.overallMshrMissRate::cpu.inst     0.000052                       # mshr miss ratio for overall accesses (Ratio)
system.cpu.icache.overallMshrMissRate::total     0.000052                       # mshr miss ratio for overall accesses (Ratio)
system.cpu.icache.demandAvgMshrMissLatency::cpu.inst 84897.504132                       # average overall mshr miss latency ((Tick/Count))
system.cpu.icache.demandAvgMshrMissLatency::total 84897.504132                       # average overall mshr miss latency ((Tick/Count))
system.cpu.icache.overallAvgMshrMissLatency::cpu.inst 84897.504132                       # average overall mshr miss latency ((Tick/Count))
system.cpu.icache.overallAvgMshrMissLatency::total 84897.504132                       # average overall mshr miss latency ((Tick/Count))
system.cpu.icache.replacements                   1181                       # number of replacements (Count)
system.cpu.icache.ReadReq.hits::cpu.inst     32655358                       # number of ReadReq hits (Count)
system.cpu.icache.ReadReq.hits::total        32655358                       # number of ReadReq hits (Count)
system.cpu.icache.ReadReq.misses::cpu.inst         2288                       # number of ReadReq misses (Count)
system.cpu.icache.ReadReq.misses::total          2288                       # number of ReadReq misses (Count)
system.cpu.icache.ReadReq.missLatency::cpu.inst    188132345                       # number of ReadReq miss ticks (Tick)
system.cpu.icache.ReadReq.missLatency::total    188132345                       # number of ReadReq miss ticks (Tick)
system.cpu.icache.ReadReq.accesses::cpu.inst     32657646                       # number of ReadReq accesses(hits+misses) (Count)
system.cpu.icache.ReadReq.accesses::total     32657646                       # number of ReadReq accesses(hits+misses) (Count)
system.cpu.icache.ReadReq.missRate::cpu.inst     0.000070                       # miss rate for ReadReq accesses (Ratio)
system.cpu.icache.ReadReq.missRate::total     0.000070                       # miss rate for ReadReq accesses (Ratio)
system.cpu.icache.ReadReq.avgMissLatency::cpu.inst 82225.675262                       # average ReadReq miss latency ((Tick/Count))
system.cpu.icache.ReadReq.avgMissLatency::total 82225.675262                       # average ReadReq miss latency ((Tick/Count))
system.cpu.icache.ReadReq.mshrHits::cpu.inst          594                       # number of ReadReq MSHR hits (Count)
system.cpu.icache.ReadReq.mshrHits::total          594                       # number of ReadReq MSHR hits (Count)
system.cpu.icache.ReadReq.mshrMisses::cpu.inst         1694                       # number of ReadReq MSHR misses (Count)
system.cpu.icache.ReadReq.mshrMisses::total         1694                       # number of ReadReq MSHR misses (Count)
system.cpu.icache.ReadReq.mshrMissLatency::cpu.inst    143816372                       # number of ReadReq MSHR miss ticks (Tick)
system.cpu.icache.ReadReq.mshrMissLatency::total    143816372                       # number of ReadReq MSHR miss ticks (Tick)
system.cpu.icache.ReadReq.mshrMissRate::cpu.inst     0.000052                       # mshr miss rate for ReadReq accesses (Ratio)
system.cpu.icache.ReadReq.mshrMissRate::total     0.000052                       # mshr miss rate for ReadReq accesses (Ratio)
system.cpu.icache.ReadReq.avgMshrMissLatency::cpu.inst 84897.504132                       # average ReadReq mshr miss latency ((Tick/Count))
system.cpu.icache.ReadReq.avgMshrMissLatency::total 84897.504132                       # average ReadReq mshr miss latency ((Tick/Count))
system.cpu.icache.power_state.pwrStateResidencyTicks::UNDEFINED 130588408206                       # Cumulative time (in ticks) in various power states (Tick)
system.cpu.icache.tags.tagsInUse           511.909694                       # Average ticks per tags in use ((Tick/Count))
system.cpu.icache.tags.totalRefs             32657051                       # Total number of references to valid blocks. (Count)
system.cpu.icache.tags.sampledRefs               1693                       # Sample count of references to valid blocks. (Count)
system.cpu.icache.tags.avgRefs           19289.457177                       # Average number of references to valid blocks. ((Count/Count))
system.cpu.icache.tags.warmupTick               92241                       # The tick when the warmup percentage was hit. (Tick)
system.cpu.icache.tags.occupancies::cpu.inst   511.909694                       # Average occupied blocks per tick, per requestor ((Count/Tick))
system.cpu.icache.tags.avgOccs::cpu.inst     0.999824                       # Average percentage of cache occupancy ((Ratio/Tick))
system.cpu.icache.tags.avgOccs::total        0.999824                       # Average percentage of cache occupancy ((Ratio/Tick))
system.cpu.icache.tags.occupanciesTaskId::1024          512                       # Occupied blocks per task id (Count)
system.cpu.icache.tags.ageTaskId_1024::0          113                       # Occupied blocks per task id, per block age (Count)
system.cpu.icache.tags.ageTaskId_1024::1          156                       # Occupied blocks per task id, per block age (Count)
system.cpu.icache.tags.ageTaskId_1024::4          243                       # Occupied blocks per task id, per block age (Count)
system.cpu.icache.tags.ratioOccsTaskId::1024            1                       # Ratio of occupied blocks and all blocks, per task id (Ratio)
system.cpu.icache.tags.tagAccesses          261262861                       # Number of tag accesses (Count)
system.cpu.icache.tags.dataAccesses         261262861                       # Number of data accesses (Count)
system.cpu.icache.tags.power_state.pwrStateResidencyTicks::UNDEFINED 130588408206                       # Cumulative time (in ticks) in various power states (Tick)
system.cpu.iew.idleCycles                           0                       # Number of cycles IEW is idle (Cycle)
system.cpu.iew.squashCycles                     11430                       # Number of cycles IEW is squashing (Cycle)
system.cpu.iew.blockCycles                   74005253                       # Number of cycles IEW is blocking (Cycle)
system.cpu.iew.unblockCycles                 40388431                       # Number of cycles IEW is unblocking (Cycle)
system.cpu.iew.dispatchedInsts              438823508                       # Number of instructions dispatched to IQ (Count)
system.cpu.iew.dispSquashedInsts                  623                       # Number of squashed instructions skipped by dispatch (Count)
system.cpu.iew.dispLoadInsts                 37950105                       # Number of dispatched load instructions (Count)
system.cpu.iew.dispStoreInsts                14778805                       # Number of dispatched store instructions (Count)
system.cpu.iew.dispNonSpecInsts                   173                       # Number of dispatched non-speculative instructions (Count)
system.cpu.iew.iqFullEvents                    184302                       # Number of times the IQ has become full, causing a stall (Count)
system.cpu.iew.lsqFullEvents                 39864407                       # Number of times the LSQ has become full, causing a stall (Count)
system.cpu.iew.memOrderViolationEvents            205                       # Number of memory order violations (Count)
system.cpu.iew.predictedTakenIncorrect           2344                       # Number of branches that were predicted taken incorrectly (Count)
system.cpu.iew.predictedNotTakenIncorrect         5876                       # Number of branches that were predicted not taken incorrectly (Count)
system.cpu.iew.branchMispredicts                 8220                       # Number of branch mispredicts detected at execute (Count)
system.cpu.iew.instsToCommit                438518186                       # Cumulative count of insts sent to commit (Count)
system.cpu.iew.writebackCount               438503503                       # Cumulative count of insts written-back (Count)
system.cpu.iew.producerInst                 329953804                       # Number of instructions producing a value (Count)
system.cpu.iew.consumerInst                 613042817                       # Number of instructions consuming a value (Count)
system.cpu.iew.wbRate                        1.118182                       # Insts written-back per cycle ((Count/Cycle))
system.cpu.iew.wbFanout                      0.538223                       # Average fanout of values written-back ((Count/Count))
system.cpu.interrupts.clk_domain.clock           5328                       # Clock period in ticks (Tick)
system.cpu.itb_walker_cache.blockedCycles::no_mshrs            0                       # number of cycles access was blocked (Cycle)
system.cpu.itb_walker_cache.blockedCycles::no_targets            0                       # number of cycles access was blocked (Cycle)
system.cpu.itb_walker_cache.blockedCauses::no_mshrs            0                       # number of times access was blocked (Count)
system.cpu.itb_walker_cache.blockedCauses::no_targets            0                       # number of times access was blocked (Count)
system.cpu.itb_walker_cache.avgBlocked::no_mshrs          nan                       # average number of cycles each access was blocked ((Cycle/Count))
system.cpu.itb_walker_cache.avgBlocked::no_targets          nan                       # average number of cycles each access was blocked ((Cycle/Count))
system.cpu.itb_walker_cache.replacements            0                       # number of replacements (Count)
system.cpu.itb_walker_cache.power_state.pwrStateResidencyTicks::UNDEFINED 130588408206                       # Cumulative time (in ticks) in various power states (Tick)
system.cpu.itb_walker_cache.tags.tagsInUse            0                       # Average ticks per tags in use ((Tick/Count))
system.cpu.itb_walker_cache.tags.totalRefs            0                       # Total number of references to valid blocks. (Count)
system.cpu.itb_walker_cache.tags.sampledRefs            0                       # Sample count of references to valid blocks. (Count)
system.cpu.itb_walker_cache.tags.avgRefs          nan                       # Average number of references to valid blocks. ((Count/Count))
system.cpu.itb_walker_cache.tags.warmupTick            0                       # The tick when the warmup percentage was hit. (Tick)
system.cpu.itb_walker_cache.tags.tagAccesses            0                       # Number of tag accesses (Count)
system.cpu.itb_walker_cache.tags.dataAccesses            0                       # Number of data accesses (Count)
system.cpu.itb_walker_cache.tags.power_state.pwrStateResidencyTicks::UNDEFINED 130588408206                       # Cumulative time (in ticks) in various power states (Tick)
system.cpu.l2cache.demandHits::cpu.inst            55                       # number of demand (read+write) hits (Count)
system.cpu.l2cache.demandHits::cpu.data       1404775                       # number of demand (read+write) hits (Count)
system.cpu.l2cache.demandHits::total          1404830                       # number of demand (read+write) hits (Count)
system.cpu.l2cache.overallHits::cpu.inst           55                       # number of overall hits (Count)
system.cpu.l2cache.overallHits::cpu.data      1404775                       # number of overall hits (Count)
system.cpu.l2cache.overallHits::total         1404830                       # number of overall hits (Count)
system.cpu.l2cache.demandMisses::cpu.inst         1638                       # number of demand (read+write) misses (Count)
system.cpu.l2cache.demandMisses::cpu.data      1313794                       # number of demand (read+write) misses (Count)
[...]
system.mem_ctrls.dram.perBankRdBursts::15        79514                       # Per bank write bursts (Count)
system.mem_ctrls.dram.perBankWrBursts::0        29906                       # Per bank write bursts (Count)
system.mem_ctrls.dram.perBankWrBursts::1        30022                       # Per bank write bursts (Count)
system.mem_ctrls.dram.perBankWrBursts::2        30390                       # Per bank write bursts (Count)
system.mem_ctrls.dram.perBankWrBursts::3        30426                       # Per bank write bursts (Count)
system.mem_ctrls.dram.perBankWrBursts::4        30815                       # Per bank write bursts (Count)
system.mem_ctrls.dram.perBankWrBursts::5        29859                       # Per bank write bursts (Count)
system.mem_ctrls.dram.perBankWrBursts::6        29931                       # Per bank write bursts (Count)
system.mem_ctrls.dram.perBankWrBursts::7        29971                       # Per bank write bursts (Count)
system.mem_ctrls.dram.perBankWrBursts::8        29780                       # Per bank write bursts (Count)
system.mem_ctrls.dram.perBankWrBursts::9        29575                       # Per bank write bursts (Count)
system.mem_ctrls.dram.perBankWrBursts::10        29518                       # Per bank write bursts (Count)
system.mem_ctrls.dram.perBankWrBursts::11        30086                       # Per bank write bursts (Count)
system.mem_ctrls.dram.perBankWrBursts::12        29854                       # Per bank write bursts (Count)
system.mem_ctrls.dram.perBankWrBursts::13        29683                       # Per bank write bursts (Count)
system.mem_ctrls.dram.perBankWrBursts::14        29962                       # Per bank write bursts (Count)
system.mem_ctrls.dram.perBankWrBursts::15        30033                       # Per bank write bursts (Count)
system.mem_ctrls.dram.totQLat             23076756615                       # Total ticks spent queuing (Tick)
system.mem_ctrls.dram.totBusLat            6371205000                       # Total ticks spent in databus transfers (Tick)
system.mem_ctrls.dram.totMemAccLat        46968775365                       # Total ticks spent from burst creation until serviced by the DRAM (Tick)
system.mem_ctrls.dram.avgQLat                18110.20                       # Average queueing delay per DRAM burst ((Tick/Count))
system.mem_ctrls.dram.avgBusLat               5000.00                       # Average bus latency per DRAM burst ((Tick/Count))
system.mem_ctrls.dram.avgMemAccLat           36860.20                       # Average memory access latency per DRAM burst ((Tick/Count))
system.mem_ctrls.dram.readRowHits              793451                       # Number of row buffer hits during reads (Count)
system.mem_ctrls.dram.writeRowHits             300400                       # Number of row buffer hits during writes (Count)
system.mem_ctrls.dram.readRowHitRate            62.27                       # Row buffer hit rate for reads (Ratio)
system.mem_ctrls.dram.writeRowHitRate           62.61                       # Row buffer hit rate for writes (Ratio)
system.mem_ctrls.dram.bytesPerActivate::samples       660193                       # Bytes accessed per row activation (Byte)
system.mem_ctrls.dram.bytesPerActivate::mean   170.038519                       # Bytes accessed per row activation (Byte)
system.mem_ctrls.dram.bytesPerActivate::gmean    98.735002                       # Bytes accessed per row activation (Byte)
system.mem_ctrls.dram.bytesPerActivate::stdev   253.631228                       # Bytes accessed per row activation (Byte)
system.mem_ctrls.dram.bytesPerActivate::0-127       495346     75.03%     75.03% # Bytes accessed per row activation (Byte)
system.mem_ctrls.dram.bytesPerActivate::128-255        57742      8.75%     83.78% # Bytes accessed per row activation (Byte)
system.mem_ctrls.dram.bytesPerActivate::256-383        24886      3.77%     87.55% # Bytes accessed per row activation (Byte)
system.mem_ctrls.dram.bytesPerActivate::384-511        13759      2.08%     89.63% # Bytes accessed per row activation (Byte)
system.mem_ctrls.dram.bytesPerActivate::512-639        10119      1.53%     91.16% # Bytes accessed per row activation (Byte)
system.mem_ctrls.dram.bytesPerActivate::640-767        10563      1.60%     92.76% # Bytes accessed per row activation (Byte)
system.mem_ctrls.dram.bytesPerActivate::768-895         6926      1.05%     93.81% # Bytes accessed per row activation (Byte)
system.mem_ctrls.dram.bytesPerActivate::896-1023         5708      0.86%     94.68% # Bytes accessed per row activation (Byte)
system.mem_ctrls.dram.bytesPerActivate::1024-1151        35144      5.32%    100.00% # Bytes accessed per row activation (Byte)
system.mem_ctrls.dram.bytesPerActivate::total       660193                       # Bytes accessed per row activation (Byte)
system.mem_ctrls.dram.bytesRead              81551424                       # Total bytes read (Byte)
system.mem_ctrls.dram.bytesWritten           30707904                       # Total bytes written (Byte)
system.mem_ctrls.dram.avgRdBW              624.492060                       # Average DRAM read bandwidth in MiBytes/s ((Byte/Second))
system.mem_ctrls.dram.avgWrBW              235.150305                       # Average DRAM write bandwidth in MiBytes/s ((Byte/Second))
system.mem_ctrls.dram.peakBW                 12800.00                       # Theoretical peak bandwidth in MiByte/s ((Byte/Second))
system.mem_ctrls.dram.busUtil                    6.72                       # Data bus utilization in percentage (Ratio)
system.mem_ctrls.dram.busUtilRead                4.88                       # Data bus utilization in percentage for reads (Ratio)
system.mem_ctrls.dram.busUtilWrite               1.84                       # Data bus utilization in percentage for writes (Ratio)
system.mem_ctrls.dram.pageHitRate               62.36                       # Row buffer hit rate, read and write combined (Ratio)
system.mem_ctrls.dram.power_state.pwrStateResidencyTicks::UNDEFINED 130588408206                       # Cumulative time (in ticks) in various power states (Tick)
system.mem_ctrls.dram.rank0.actEnergy      2365674780                       # Energy for activate commands per rank (pJ) (Joule)
system.mem_ctrls.dram.rank0.preEnergy      1257378375                       # Energy for precharge commands per rank (pJ) (Joule)
system.mem_ctrls.dram.rank0.readEnergy     4555455660                       # Energy for read commands per rank (pJ) (Joule)
system.mem_ctrls.dram.rank0.writeEnergy    1259690400                       # Energy for write commands per rank (pJ) (Joule)
system.mem_ctrls.dram.rank0.refreshEnergy 10308127440.000002                       # Energy for refresh commands per rank (pJ) (Joule)
system.mem_ctrls.dram.rank0.actBackEnergy  44173149780                       # Energy for active background per rank (pJ) (Joule)
system.mem_ctrls.dram.rank0.preBackEnergy  12947507040                       # Energy for precharge background per rank (pJ) (Joule)
system.mem_ctrls.dram.rank0.actPowerDownEnergy            0                       # Energy for active power-down per rank (pJ) (Joule)
system.mem_ctrls.dram.rank0.prePowerDownEnergy            0                       # Energy for precharge power-down per rank (pJ) (Joule)
system.mem_ctrls.dram.rank0.selfRefreshEnergy            0                       # Energy for self refresh per rank (pJ) (Joule)
system.mem_ctrls.dram.rank0.totalEnergy   76866983475                       # Total energy per rank (pJ) (Joule)
system.mem_ctrls.dram.rank0.averagePower   588.620265                       # Core power per rank (mW) (Watt)
system.mem_ctrls.dram.rank0.totalIdleTime            0                       # Total Idle time Per DRAM Rank (Tick)
system.mem_ctrls.dram.rank0.pwrStateTime::IDLE  33123637061                       # Time in different power states (Tick)
system.mem_ctrls.dram.rank0.pwrStateTime::REF   4360460000                       # Time in different power states (Tick)
system.mem_ctrls.dram.rank0.pwrStateTime::SREF            0                       # Time in different power states (Tick)
system.mem_ctrls.dram.rank0.pwrStateTime::PRE_PDN            0                       # Time in different power states (Tick)
system.mem_ctrls.dram.rank0.pwrStateTime::ACT  93104311145                       # Time in different power states (Tick)
system.mem_ctrls.dram.rank0.pwrStateTime::ACT_PDN            0                       # Time in different power states (Tick)
system.mem_ctrls.dram.rank1.actEnergy      2348160360                       # Energy for activate commands per rank (pJ) (Joule)
system.mem_ctrls.dram.rank1.preEnergy      1248054060                       # Energy for precharge commands per rank (pJ) (Joule)
system.mem_ctrls.dram.rank1.readEnergy     4542625080                       # Energy for read commands per rank (pJ) (Joule)
system.mem_ctrls.dram.rank1.writeEnergy    1244923020                       # Energy for write commands per rank (pJ) (Joule)
system.mem_ctrls.dram.rank1.refreshEnergy 10308127440.000002                       # Energy for refresh commands per rank (pJ) (Joule)
system.mem_ctrls.dram.rank1.actBackEnergy  44162690850                       # Energy for active background per rank (pJ) (Joule)
system.mem_ctrls.dram.rank1.preBackEnergy  12956314560                       # Energy for precharge background per rank (pJ) (Joule)
system.mem_ctrls.dram.rank1.actPowerDownEnergy            0                       # Energy for active power-down per rank (pJ) (Joule)
system.mem_ctrls.dram.rank1.prePowerDownEnergy            0                       # Energy for precharge power-down per rank (pJ) (Joule)
system.mem_ctrls.dram.rank1.selfRefreshEnergy            0                       # Energy for self refresh per rank (pJ) (Joule)
system.mem_ctrls.dram.rank1.totalEnergy   76810895370                       # Total energy per rank (pJ) (Joule)
system.mem_ctrls.dram.rank1.averagePower   588.190762                       # Core power per rank (mW) (Watt)
system.mem_ctrls.dram.rank1.totalIdleTime            0                       # Total Idle time Per DRAM Rank (Tick)
system.mem_ctrls.dram.rank1.pwrStateTime::IDLE  33154017314                       # Time in different power states (Tick)
system.mem_ctrls.dram.rank1.pwrStateTime::REF   4360460000                       # Time in different power states (Tick)
system.mem_ctrls.dram.rank1.pwrStateTime::SREF            0                       # Time in different power states (Tick)
system.mem_ctrls.dram.rank1.pwrStateTime::PRE_PDN            0                       # Time in different power states (Tick)
system.mem_ctrls.dram.rank1.pwrStateTime::ACT  93073930892                       # Time in different power states (Tick)
system.mem_ctrls.dram.rank1.pwrStateTime::ACT_PDN            0                       # Time in different power states (Tick)
system.mem_ctrls.power_state.pwrStateResidencyTicks::UNDEFINED 130588408206                       # Cumulative time (in ticks) in various power states (Tick)
system.membus.transDist::ReadResp              745661                       # Transaction distribution (Count)
system.membus.transDist::WritebackDirty        479837                       # Transaction distribution (Count)
system.membus.transDist::CleanEvict            695607                       # Transaction distribution (Count)
system.membus.transDist::ReadExReq             528768                       # Transaction distribution (Count)
system.membus.transDist::ReadExResp            528768                       # Transaction distribution (Count)
system.membus.transDist::ReadSharedReq         745661                       # Transaction distribution (Count)
system.membus.pktCount_system.l3.mem_side_port::system.mem_ctrls.port      3724302                       # Packet count per connected requestor and responder (Count)
system.membus.pktCount_system.l3.mem_side_port::total      3724302                       # Packet count per connected requestor and responder (Count)
system.membus.pktCount::total                 3724302                       # Packet count per connected requestor and responder (Count)
system.membus.pktSize_system.l3.mem_side_port::system.mem_ctrls.port    112273024                       # Cumulative packet size per connected requestor and responder (Byte)
system.membus.pktSize_system.l3.mem_side_port::total    112273024                       # Cumulative packet size per connected requestor and responder (Byte)
system.membus.pktSize::total                112273024                       # Cumulative packet size per connected requestor and responder (Byte)
system.membus.snoops                                0                       # Total snoops (Count)
system.membus.snoopTraffic                          0                       # Total snoop traffic (Byte)
system.membus.snoopFanout::samples            1274429                       # Request fanout histogram (Count)
system.membus.snoopFanout::mean                     0                       # Request fanout histogram (Count)
system.membus.snoopFanout::stdev                    0                       # Request fanout histogram (Count)
system.membus.snoopFanout::underflows               0      0.00%      0.00% # Request fanout histogram (Count)
system.membus.snoopFanout::0                  1274429    100.00%    100.00% # Request fanout histogram (Count)
system.membus.snoopFanout::1                        0      0.00%    100.00% # Request fanout histogram (Count)
system.membus.snoopFanout::overflows                0      0.00%    100.00% # Request fanout histogram (Count)
system.membus.snoopFanout::min_value                0                       # Request fanout histogram (Count)
system.membus.snoopFanout::max_value                0                       # Request fanout histogram (Count)
system.membus.snoopFanout::total              1274429                       # Request fanout histogram (Count)
system.membus.power_state.pwrStateResidencyTicks::UNDEFINED 130588408206                       # Cumulative time (in ticks) in various power states (Tick)
system.membus.reqLayer2.occupancy          5267522293                       # Layer occupancy (ticks) (Tick)
system.membus.reqLayer2.utilization               0.0                       # Layer utilization (Ratio)
system.membus.respLayer1.occupancy         6881533565                       # Layer occupancy (ticks) (Tick)
system.membus.respLayer1.utilization              0.1                       # Layer utilization (Ratio)
system.membus.snoop_filter.totRequests        2449873                       # Total number of requests made to the snoop filter. (Count)
system.membus.snoop_filter.hitSingleRequests      1175445                       # Number of requests hitting in the snoop filter with a single holder of the requested data. (Count)
system.membus.snoop_filter.hitMultiRequests            0                       # Number of requests hitting in the snoop filter with multiple (>1) holders of the requested data. (Count)
system.membus.snoop_filter.totSnoops                0                       # Total number of snoops made to the snoop filter. (Count)
system.membus.snoop_filter.hitSingleSnoops            0                       # Number of snoops hitting in the snoop filter with a single holder of the requested data. (Count)
system.membus.snoop_filter.hitMultiSnoops            0                       # Number of snoops hitting in the snoop filter with multiple (>1) holders of the requested data. (Count)
system.tol3bus.transDist::ReadResp             786659                       # Transaction distribution (Count)
system.tol3bus.transDist::WritebackDirty      1033973                       # Transaction distribution (Count)
system.tol3bus.transDist::CleanEvict          1429765                       # Transaction distribution (Count)
system.tol3bus.transDist::ReadExReq            528772                       # Transaction distribution (Count)
system.tol3bus.transDist::ReadExResp           528772                       # Transaction distribution (Count)
system.tol3bus.transDist::ReadSharedReq        786659                       # Transaction distribution (Count)
system.tol3bus.pktCount_system.cpu.l2cache.mem_side_port::system.l3.cpu_side_port      3913274                       # Packet count per connected requestor and responder (Count)
system.tol3bus.pktSize_system.cpu.l2cache.mem_side_port::system.l3.cpu_side_port    119652288                       # Cumulative packet size per connected requestor and responder (Byte)
system.tol3bus.snoops                         1181326                       # Total snoops (Count)
system.tol3bus.snoopTraffic                  30709568                       # Total snoop traffic (Byte)
system.tol3bus.snoopFanout::samples           2496757                       # Request fanout histogram (Count)
system.tol3bus.snoopFanout::mean             0.003332                       # Request fanout histogram (Count)
system.tol3bus.snoopFanout::stdev            0.057627                       # Request fanout histogram (Count)
system.tol3bus.snoopFanout::underflows              0      0.00%      0.00% # Request fanout histogram (Count)
system.tol3bus.snoopFanout::0                 2488438     99.67%     99.67% # Request fanout histogram (Count)
system.tol3bus.snoopFanout::1                    8319      0.33%    100.00% # Request fanout histogram (Count)
system.tol3bus.snoopFanout::overflows               0      0.00%    100.00% # Request fanout histogram (Count)
system.tol3bus.snoopFanout::min_value               0                       # Request fanout histogram (Count)
system.tol3bus.snoopFanout::max_value               1                       # Request fanout histogram (Count)
system.tol3bus.snoopFanout::total             2496757                       # Request fanout histogram (Count)
system.tol3bus.power_state.pwrStateResidencyTicks::UNDEFINED 130588408206                       # Cumulative time (in ticks) in various power states (Tick)
system.tol3bus.reqLayer0.occupancy         1234136295                       # Layer occupancy (ticks) (Tick)
system.tol3bus.reqLayer0.utilization              0.0                       # Layer utilization (Ratio)
system.tol3bus.respLayer0.occupancy        1314115569                       # Layer occupancy (ticks) (Tick)
system.tol3bus.respLayer0.utilization             0.0                       # Layer utilization (Ratio)
system.tol3bus.snoop_filter.totRequests       2597843                       # Total number of requests made to the snoop filter. (Count)
system.tol3bus.snoop_filter.hitSingleRequests      1282413                       # Number of requests hitting in the snoop filter with a single holder of the requested data. (Count)
system.tol3bus.snoop_filter.hitMultiRequests            0                       # Number of requests hitting in the snoop filter with multiple (>1) holders of the requested data. (Count)
system.tol3bus.snoop_filter.totSnoops            8319                       # Total number of snoops made to the snoop filter. (Count)
system.tol3bus.snoop_filter.hitSingleSnoops         8319                       # Number of snoops hitting in the snoop filter with a single holder of the requested data. (Count)
system.tol3bus.snoop_filter.hitMultiSnoops            0                       # Number of snoops hitting in the snoop filter with multiple (>1) holders of the requested data. (Count)
system.voltage_domain.voltage                       1                       # Voltage in Volts (Volt)
system.workload.inst.arm                            0                       # number of arm instructions executed (Count)
system.workload.inst.quiesce                        0                       # number of quiesce instructions executed (Count)

---------- End Simulation Statistics   ----------
