
---------- Begin Simulation Statistics ----------
simSeconds                                   0.000507                       # Number of seconds simulated (Second)
simTicks                                    506754738                       # Number of ticks simulated (Tick)
finalTick                                   506754738                       # Number of ticks from beginning of simulation (restored from checkpoints and never reset) (Tick)
simFreq                                  1000000000000                       # The number of ticks per simulated second ((Tick/Second))
hostSeconds                                      6.19                       # Real time elapsed on the host (Second)
hostTickRate                                 81876756                       # The number of ticks simulated per host second (ticks/s) ((Tick/Second))
hostMemory                                     766216                       # Number of bytes of host memory used (Byte)
simInsts                                       927505                       # Number of instructions simulated (Count)
simOps                                        2393654                       # Number of ops (including micro ops) simulated (Count)
hostInstRate                                   149855                       # Simulator instruction rate (inst/s) ((Count/Second))
hostOpRate                                     386737                       # Simulator op (including micro ops) rate (op/s) ((Count/Second))
system.clk_domain.clock                          1000                       # Clock period in ticks (Tick)
system.cpu.numCycles                          1521787                       # Number of cpu cycles simulated (Cycle)
system.cpu.numWorkItemsStarted                      0                       # Number of work items this cpu started (Count)
system.cpu.numWorkItemsCompleted                    0                       # Number of work items this cpu completed (Count)
system.cpu.instsAdded                         2733428                       # Number of instructions added to the IQ (excludes non-spec) (Count)
system.cpu.nonSpecInstsAdded                      126                       # Number of non-speculative instructions added to the IQ (Count)
system.cpu.instsIssued                        2622737                       # Number of instructions issued (Count)
system.cpu.squashedInstsIssued                   2921                       # Number of squashed instructions issued (Count)
system.cpu.squashedInstsExamined               339825                       # Number of squashed instructions iterated over during squash; mainly for profiling (Count)
system.cpu.squashedOperandsExamined            637879                       # Number of squashed operands that are examined and possibly removed from graph (Count)
system.cpu.squashedNonSpecRemoved                  48                       # Number of squashed non-spec instructions that were removed (Count)
system.cpu.numIssuedDist::samples             1342906                       # Number of insts issued each cycle (Count)
system.cpu.numIssuedDist::mean               1.953031                       # Number of insts issued each cycle (Count)
system.cpu.numIssuedDist::stdev              2.269617                       # Number of insts issued each cycle (Count)
system.cpu.numIssuedDist::underflows                0      0.00%      0.00% # Number of insts issued each cycle (Count)
system.cpu.numIssuedDist::0                    558536     41.59%     41.59% # Number of insts issued each cycle (Count)
system.cpu.numIssuedDist::1                    166746     12.42%     54.01% # Number of insts issued each cycle (Count)
system.cpu.numIssuedDist::2                    174867     13.02%     67.03% # Number of insts issued each cycle (Count)
system.cpu.numIssuedDist::3                    139497     10.39%     77.42% # Number of insts issued each cycle (Count)
system.cpu.numIssuedDist::4                     80816      6.02%     83.44% # Number of insts issued each cycle (Count)
system.cpu.numIssuedDist::5                     83503      6.22%     89.65% # Number of insts issued each cycle (Count)
system.cpu.numIssuedDist::6                     56690      4.22%     93.88% # Number of insts issued each cycle (Count)
system.cpu.numIssuedDist::7                     51161      3.81%     97.68% # Number of insts issued each cycle (Count)
system.cpu.numIssuedDist::8                     31090      2.32%    100.00% # Number of insts issued each cycle (Count)
system.cpu.numIssuedDist::overflows                 0      0.00%    100.00% # Number of insts issued each cycle (Count)
system.cpu.numIssuedDist::min_value                 0                       # Number of insts issued each cycle (Count)
system.cpu.numIssuedDist::max_value                 8                       # Number of insts issued each cycle (Count)
system.cpu.numIssuedDist::total               1342906                       # Number of insts issued each cycle (Count)
system.cpu.statFuBusy::No_OpClass                   0      0.00%      0.00% # attempts to use FU when none available (Count)
system.cpu.statFuBusy::IntAlu                   39086     94.74%     94.74% # attempts to use FU when none available (Count)
system.cpu.statFuBusy::IntMult                      0      0.00%     94.74% # attempts to use FU when none available (Count)
system.cpu.statFuBusy::IntDiv                       0      0.00%     94.74% # attempts to use FU when none available (Count)
system.cpu.statFuBusy::FloatAdd                     0      0.00%     94.74% # attempts to use FU when none available (Count)
system.cpu.statFuBusy::FloatCmp                     0      0.00%     94.74% # attempts to use FU when none available (Count)
system.cpu.statFuBusy::FloatCvt                     0      0.00%     94.74% # attempts to use FU when none available (Count)
system.cpu.statFuBusy::FloatMult                    0      0.00%     94.74% # attempts to use FU when none available (Count)
system.cpu.statFuBusy::FloatMultAcc                 0      0.00%     94.74% # attempts to use FU when none available (Count)
system.cpu.statFuBusy::FloatDiv                     0      0.00%     94.74% # attempts to use FU when none available (Count)
system.cpu.statFuBusy::FloatMisc                    0      0.00%     94.74% # attempts to use FU when none available (Count)
system.cpu.statFuBusy::FloatSqrt                    0      0.00%     94.74% # attempts to use FU when none available (Count)
system.cpu.statFuBusy::SimdAdd                      1      0.00%     94.75% # attempts to use FU when none available (Count)
system.cpu.statFuBusy::SimdAddAcc                   0      0.00%     94.75% # attempts to use FU when none available (Count)
system.cpu.statFuBusy::SimdAlu                     29      0.07%     94.82% # attempts to use FU when none available (Count)
system.cpu.statFuBusy::SimdCmp                      0      0.00%     94.82% # attempts to use FU when none available (Count)
system.cpu.statFuBusy::SimdCvt                    100      0.24%     95.06% # attempts to use FU when none available (Count)
system.cpu.statFuBusy::SimdMisc                     7      0.02%     95.08% # attempts to use FU when none available (Count)
system.cpu.statFuBusy::SimdMult                     0      0.00%     95.08% # attempts to use FU when none available (Count)
system.cpu.statFuBusy::SimdMultAcc                  0      0.00%     95.08% # attempts to use FU when none available (Count)
system.cpu.statFuBusy::SimdShift                   23      0.06%     95.13% # attempts to use FU when none available (Count)
system.cpu.statFuBusy::SimdShiftAcc                 0      0.00%     95.13% # attempts to use FU when none available (Count)
system.cpu.statFuBusy::SimdDiv                      0      0.00%     95.13% # attempts to use FU when none available (Count)
system.cpu.statFuBusy::SimdSqrt                     0      0.00%     95.13% # attempts to use FU when none available (Count)
system.cpu.statFuBusy::SimdFloatAdd                 0      0.00%     95.13% # attempts to use FU when none available (Count)
system.cpu.statFuBusy::SimdFloatAlu                 0      0.00%     95.13% # attempts to use FU when none available (Count)
system.cpu.statFuBusy::SimdFloatCmp                 0      0.00%     95.13% # attempts to use FU when none available (Count)
system.cpu.statFuBusy::SimdFloatCvt                 0      0.00%     95.13% # attempts to use FU when none available (Count)
system.cpu.statFuBusy::SimdFloatDiv                 0      0.00%     95.13% # attempts to use FU when none available (Count)
system.cpu.statFuBusy::SimdFloatMisc                0      0.00%     95.13% # attempts to use FU when none available (Count)
system.cpu.statFuBusy::SimdFloatMult                0      0.00%     95.13% # attempts to use FU when none available (Count)
system.cpu.statFuBusy::SimdFloatMultAcc             0      0.00%     95.13% # attempts to use FU when none available (Count)
system.cpu.statFuBusy::SimdFloatSqrt                0      0.00%     95.13% # attempts to use FU when none available (Count)
system.cpu.statFuBusy::SimdReduceAdd                0      0.00%     95.13% # attempts to use FU when none available (Count)
system.cpu.statFuBusy::SimdReduceAlu                0      0.00%     95.13% # attempts to use FU when none available (Count)
system.cpu.statFuBusy::SimdReduceCmp                0      0.00%     95.13% # attempts to use FU when none available (Count)
system.cpu.statFuBusy::SimdFloatReduceAdd            0      0.00%     95.13% # attempts to use FU when none available (Count)
system.cpu.statFuBusy::SimdFloatReduceCmp            0      0.00%     95.13% # attempts to use FU when none available (Count)
system.cpu.statFuBusy::SimdAes                      0      0.00%     95.13% # attempts to use FU when none available (Count)
system.cpu.statFuBusy::SimdAesMix                   0      0.00%     95.13% # attempts to use FU when none available (Count)
system.cpu.statFuBusy::SimdSha1Hash                 0      0.00%     95.13% # attempts to use FU when none available (Count)
system.cpu.statFuBusy::SimdSha1Hash2                0      0.00%     95.13% # attempts to use FU when none available (Count)
system.cpu.statFuBusy::SimdSha256Hash               0      0.00%     95.13% # attempts to use FU when none available (Count)
system.cpu.statFuBusy::SimdSha256Hash2              0      0.00%     95.13% # attempts to use FU when none available (Count)
system.cpu.statFuBusy::SimdShaSigma2                0      0.00%     95.13% # attempts to use FU when none available (Count)
system.cpu.statFuBusy::SimdShaSigma3                0      0.00%     95.13% # attempts to use FU when none available (Count)
system.cpu.statFuBusy::SimdPredAlu                  0      0.00%     95.13% # attempts to use FU when none available (Count)
system.cpu.statFuBusy::MemRead                   1238      3.00%     98.13% # attempts to use FU when none available (Count)
system.cpu.statFuBusy::MemWrite                   584      1.42%     99.55% # attempts to use FU when none available (Count)
system.cpu.statFuBusy::FloatMemRead               118      0.29%     99.84% # attempts to use FU when none available (Count)
system.cpu.statFuBusy::FloatMemWrite               68      0.16%    100.00% # attempts to use FU when none available (Count)
system.cpu.statFuBusy::IprAccess                    0      0.00%    100.00% # attempts to use FU when none available (Count)
system.cpu.statFuBusy::InstPrefetch                 0      0.00%    100.00% # attempts to use FU when none available (Count)
system.cpu.statIssuedInstType_0::No_OpClass        31561      1.20%      1.20% # Number of instructions issued per FU type, per thread (Count)
system.cpu.statIssuedInstType_0::IntAlu       1983062     75.61%     76.81% # Number of instructions issued per FU type, per thread (Count)
system.cpu.statIssuedInstType_0::IntMult        23562      0.90%     77.71% # Number of instructions issued per FU type, per thread (Count)
system.cpu.statIssuedInstType_0::IntDiv        193913      7.39%     85.11% # Number of instructions issued per FU type, per thread (Count)
system.cpu.statIssuedInstType_0::FloatAdd         1173      0.04%     85.15% # Number of instructions issued per FU type, per thread (Count)
system.cpu.statIssuedInstType_0::FloatCmp            0      0.00%     85.15% # Number of instructions issued per FU type, per thread (Count)
system.cpu.statIssuedInstType_0::FloatCvt           96      0.00%     85.15% # Number of instructions issued per FU type, per thread (Count)
system.cpu.statIssuedInstType_0::FloatMult            0      0.00%     85.15% # Number of instructions issued per FU type, per thread (Count)
system.cpu.statIssuedInstType_0::FloatMultAcc            0      0.00%     85.15% # Number of instructions issued per FU type, per thread (Count)
system.cpu.statIssuedInstType_0::FloatDiv            0      0.00%     85.15% # Number of instructions issued per FU type, per thread (Count)
system.cpu.statIssuedInstType_0::FloatMisc            0      0.00%     85.15% # Number of instructions issued per FU type, per thread (Count)
system.cpu.statIssuedInstType_0::FloatSqrt            0      0.00%     85.15% # Number of instructions issued per FU type, per thread (Count)
system.cpu.statIssuedInstType_0::SimdAdd         1429      0.05%     85.21% # Number of instructions issued per FU type, per thread (Count)
system.cpu.statIssuedInstType_0::SimdAddAcc            0      0.00%     85.21% # Number of instructions issued per FU type, per thread (Count)
system.cpu.statIssuedInstType_0::SimdAlu        15731      0.60%     85.81% # Number of instructions issued per FU type, per thread (Count)
system.cpu.statIssuedInstType_0::SimdCmp            6      0.00%     85.81% # Number of instructions issued per FU type, per thread (Count)
system.cpu.statIssuedInstType_0::SimdCvt         3595      0.14%     85.95% # Number of instructions issued per FU type, per thread (Count)
system.cpu.statIssuedInstType_0::SimdMisc         8603      0.33%     86.27% # Number of instructions issued per FU type, per thread (Count)
system.cpu.statIssuedInstType_0::SimdMult            0      0.00%     86.27% # Number of instructions issued per FU type, per thread (Count)
system.cpu.statIssuedInstType_0::SimdMultAcc            0      0.00%     86.27% # Number of instructions issued per FU type, per thread (Count)
system.cpu.statIssuedInstType_0::SimdShift         1309      0.05%     86.32% # Number of instructions issued per FU type, per thread (Count)
system.cpu.statIssuedInstType_0::SimdShiftAcc            0      0.00%     86.32% # Number of instructions issued per FU type, per thread (Count)
system.cpu.statIssuedInstType_0::SimdDiv            0      0.00%     86.32% # Number of instructions issued per FU type, per thread (Count)
system.cpu.statIssuedInstType_0::SimdSqrt            0      0.00%     86.32% # Number of instructions issued per FU type, per thread (Count)
system.cpu.statIssuedInstType_0::SimdFloatAdd            0      0.00%     86.32% # Number of instructions issued per FU type, per thread (Count)
system.cpu.statIssuedInstType_0::SimdFloatAlu            0      0.00%     86.32% # Number of instructions issued per FU type, per thread (Count)
system.cpu.statIssuedInstType_0::SimdFloatCmp            0      0.00%     86.32% # Number of instructions issued per FU type, per thread (Count)
system.cpu.statIssuedInstType_0::SimdFloatCvt         6243      0.24%     86.56% # Number of instructions issued per FU type, per thread (Count)
system.cpu.statIssuedInstType_0::SimdFloatDiv         6238      0.24%     86.80% # Number of instructions issued per FU type, per thread (Count)
system.cpu.statIssuedInstType_0::SimdFloatMisc            0      0.00%     86.80% # Number of instructions issued per FU type, per thread (Count)
system.cpu.statIssuedInstType_0::SimdFloatMult           13      0.00%     86.80% # Number of instructions issued per FU type, per thread (Count)
system.cpu.statIssuedInstType_0::SimdFloatMultAcc            0      0.00%     86.80% # Number of instructions issued per FU type, per thread (Count)
system.cpu.statIssuedInstType_0::SimdFloatSqrt            1      0.00%     86.80% # Number of instructions issued per FU type, per thread (Count)
system.cpu.statIssuedInstType_0::SimdReduceAdd            0      0.00%     86.80% # Number of instructions issued per FU type, per thread (Count)
system.cpu.statIssuedInstType_0::SimdReduceAlu            0      0.00%     86.80% # Number of instructions issued per FU type, per thread (Count)
system.cpu.statIssuedInstType_0::SimdReduceCmp            0      0.00%     86.80% # Number of instructions issued per FU type, per thread (Count)
system.cpu.statIssuedInstType_0::SimdFloatReduceAdd            0      0.00%     86.80% # Number of instructions issued per FU type, per thread (Count)
system.cpu.statIssuedInstType_0::SimdFloatReduceCmp            0      0.00%     86.80% # Number of instructions issued per FU type, per thread (Count)
system.cpu.statIssuedInstType_0::SimdAes            0      0.00%     86.80% # Number of instructions issued per FU type, per thread (Count)
system.cpu.statIssuedInstType_0::SimdAesMix            0      0.00%     86.80% # Number of instructions issued per FU type, per thread (Count)
system.cpu.statIssuedInstType_0::SimdSha1Hash            0      0.00%     86.80% # Number of instructions issued per FU type, per thread (Count)
system.cpu.statIssuedInstType_0::SimdSha1Hash2            0      0.00%     86.80% # Number of instructions issued per FU type, per thread (Count)
system.cpu.statIssuedInstType_0::SimdSha256Hash            0      0.00%     86.80% # Number of instructions issued per FU type, per thread (Count)
system.cpu.statIssuedInstType_0::SimdSha256Hash2            0      0.00%     86.80% # Number of instructions issued per FU type, per thread (Count)
system.cpu.statIssuedInstType_0::SimdShaSigma2            0      0.00%     86.80% # Number of instructions issued per FU type, per thread (Count)
system.cpu.statIssuedInstType_0::SimdShaSigma3            0      0.00%     86.80% # Number of instructions issued per FU type, per thread (Count)
system.cpu.statIssuedInstType_0::SimdPredAlu            0      0.00%     86.80% # Number of instructions issued per FU type, per thread (Count)
system.cpu.statIssuedInstType_0::MemRead       242717      9.25%     96.05% # Number of instructions issued per FU type, per thread (Count)
system.cpu.statIssuedInstType_0::MemWrite        82929      3.16%     99.22% # Number of instructions issued per FU type, per thread (Count)
system.cpu.statIssuedInstType_0::FloatMemRead        11831      0.45%     99.67% # Number of instructions issued per FU type, per thread (Count)
system.cpu.statIssuedInstType_0::FloatMemWrite         8725      0.33%    100.00% # Number of instructions issued per FU type, per thread (Count)
system.cpu.statIssuedInstType_0::IprAccess            0      0.00%    100.00% # Number of instructions issued per FU type, per thread (Count)
system.cpu.statIssuedInstType_0::InstPrefetch            0      0.00%    100.00% # Number of instructions issued per FU type, per thread (Count)
system.cpu.statIssuedInstType_0::total        2622737                       # Number of instructions issued per FU type, per thread (Count)
system.cpu.issueRate                         1.723459                       # Inst issue rate ((Count/Cycle))
system.cpu.fuBusy                               41254                       # FU busy when requested (Count)
system.cpu.fuBusyRate                        0.015729                       # FU busy rate (busy events/executed inst) ((Count/Count))
system.cpu.intInstQueueReads                  6500694                       # Number of integer instruction queue reads (Count)
system.cpu.intInstQueueWrites                 2987140                       # Number of integer instruction queue writes (Count)
system.cpu.intInstQueueWakeupAccesses         2534703                       # Number of integer instruction queue wakeup accesses (Count)
system.cpu.fpInstQueueReads                    131860                       # Number of floating instruction queue reads (Count)
system.cpu.fpInstQueueWrites                    86329                       # Number of floating instruction queue writes (Count)
system.cpu.fpInstQueueWakeupAccesses            64082                       # Number of floating instruction queue wakeup accesses (Count)
system.cpu.vecInstQueueReads                        0                       # Number of vector instruction queue reads (Count)
system.cpu.vecInstQueueWrites                       0                       # Number of vector instruction queue writes (Count)
system.cpu.vecInstQueueWakeupAccesses               0                       # Number of vector instruction queue wakeup accesses (Count)
system.cpu.intAluAccesses                     2566380                       # Number of integer alu accesses (Count)
system.cpu.fpAluAccesses                        66050                       # Number of floating point alu accesses (Count)
system.cpu.vecAluAccesses                           0                       # Number of vector alu accesses (Count)
system.cpu.numInsts                           2608254                       # Number of executed instructions (Count)
system.cpu.numLoadInsts                        250471                       # Number of load instructions executed (Count)
system.cpu.numSquashedInsts                     14482                       # Number of squashed instructions skipped in execute (Count)
system.cpu.numSwp                                   0                       # Number of swp insts executed (Count)
system.cpu.numNop                                   0                       # Number of nop insts executed (Count)
system.cpu.numRefs                             341500                       # Number of memory reference insts executed (Count)
system.cpu.numBranches                         188063                       # Number of branches executed (Count)
system.cpu.numStoreInsts                        91029                       # Number of stores executed (Count)
system.cpu.numRate                           1.713942                       # Inst execution rate ((Count/Cycle))
system.cpu.timesIdled                             910                       # Number of times that the entire CPU went into an idle state and unscheduled itself (Count)
system.cpu.idleCycles                          178881                       # Total number of cycles that the CPU has spent unscheduled due to idling (Cycle)
system.cpu.committedInsts                      927505                       # Number of Instructions Simulated (Count)
system.cpu.committedOps                       2393654                       # Number of Ops (including micro ops) Simulated (Count)
system.cpu.cpi                               1.640732                       # CPI: Cycles Per Instruction ((Cycle/Count))
system.cpu.totalCpi                          1.640732                       # CPI: Total CPI of All Threads ((Cycle/Count))
system.cpu.ipc                               0.609484                       # IPC: Instructions Per Cycle ((Count/Cycle))
system.cpu.totalIpc                          0.609484                       # IPC: Total IPC of All Threads ((Count/Cycle))
system.cpu.intRegfileReads                    4380844                       # Number of integer regfile reads (Count)
system.cpu.intRegfileWrites                   2447277                       # Number of integer regfile writes (Count)
system.cpu.fpRegfileReads                       99087                       # Number of floating regfile reads (Count)
system.cpu.fpRegfileWrites                      54137                       # Number of floating regfile writes (Count)
system.cpu.ccRegfileReads                     2065165                       # number of cc regfile reads (Count)
system.cpu.ccRegfileWrites                     811131                       # number of cc regfile writes (Count)
system.cpu.miscRegfileReads                    709691                       # number of misc regfile reads (Count)
system.cpu.miscRegfileWrites                       54                       # number of misc regfile writes (Count)
system.cpu.MemDepUnit__0.insertedLoads         262585                       # Number of loads inserted to the mem dependence unit. (Count)
system.cpu.MemDepUnit__0.insertedStores         95258                       # Number of stores inserted to the mem dependence unit. (Count)
system.cpu.MemDepUnit__0.conflictingLoads        19821                       # Number of conflicting loads. (Count)
system.cpu.MemDepUnit__0.conflictingStores         6930                       # Number of conflicting stores. (Count)
system.cpu.MemDepUnit__1.insertedLoads              0                       # Number of loads inserted to the mem dependence unit. (Count)
system.cpu.MemDepUnit__1.insertedStores             0                       # Number of stores inserted to the mem dependence unit. (Count)
system.cpu.MemDepUnit__1.conflictingLoads            0                       # Number of conflicting loads. (Count)
system.cpu.MemDepUnit__1.conflictingStores            0                       # Number of conflicting stores. (Count)
system.cpu.MemDepUnit__2.insertedLoads              0                       # Number of loads inserted to the mem dependence unit. (Count)
system.cpu.MemDepUnit__2.insertedStores             0                       # Number of stores inserted to the mem dependence unit. (Count)
system.cpu.MemDepUnit__2.conflictingLoads            0                       # Number of conflicting loads. (Count)
system.cpu.MemDepUnit__2.conflictingStores            0                       # Number of conflicting stores. (Count)
system.cpu.MemDepUnit__3.insertedLoads              0                       # Number of loads inserted to the mem dependence unit. (Count)
system.cpu.MemDepUnit__3.insertedStores             0                       # Number of stores inserted to the mem dependence unit. (Count)
system.cpu.MemDepUnit__3.conflictingLoads            0                       # Number of conflicting loads. (Count)
system.cpu.MemDepUnit__3.conflictingStores            0                       # Number of conflicting stores. (Count)
system.cpu.branchPred.lookups                  228745                       # Number of BP lookups (Count)
system.cpu.branchPred.condPredicted            159536                       # Number of conditional branches predicted (Count)
system.cpu.branchPred.condIncorrect              7009                       # Number of conditional branches incorrect (Count)
system.cpu.branchPred.BTBLookups                74024                       # Number of BTB lookups (Count)
system.cpu.branchPred.BTBHits                   71632                       # Number of BTB hits (Count)
system.cpu.branchPred.BTBHitRatio            0.967686                       # BTB Hit Ratio (Ratio)
system.cpu.branchPred.RASUsed                   21323                       # Number of times the RAS was used to get a target. (Count)
system.cpu.branchPred.RASIncorrect                  8                       # Number of incorrect RAS predictions. (Count)
system.cpu.branchPred.indirectLookups            8810                       # Number of indirect predictor lookups. (Count)
system.cpu.branchPred.indirectHits               6565                       # Number of indirect target hits. (Count)
system.cpu.branchPred.indirectMisses             2245                       # Number of indirect misses. (Count)
system.cpu.branchPred.indirectMispredicted          562                       # Number of mispredicted indirect branches. (Count)
system.cpu.commit.commitSquashedInsts          335655                       # The number of squashed insts skipped by commit (Count)
system.cpu.commit.commitNonSpecStalls              78                       # The number of times commit has been forced to stall to communicate backwards (Count)
system.cpu.commit.branchMispredicts              6878                       # The number of times a branch was mispredicted (Count)
system.cpu.commit.numCommittedDist::samples      1293950                       # Number of insts commited each cycle (Count)
system.cpu.commit.numCommittedDist::mean     1.849881                       # Number of insts commited each cycle (Count)
system.cpu.commit.numCommittedDist::stdev     2.731848                       # Number of insts commited each cycle (Count)
system.cpu.commit.numCommittedDist::underflows            0      0.00%      0.00% # Number of insts commited each cycle (Count)
system.cpu.commit.numCommittedDist::0          575356     44.47%     44.47% # Number of insts commited each cycle (Count)
system.cpu.commit.numCommittedDist::1          373279     28.85%     73.31% # Number of insts commited each cycle (Count)
system.cpu.commit.numCommittedDist::2           34209      2.64%     75.96% # Number of insts commited each cycle (Count)
system.cpu.commit.numCommittedDist::3           67673      5.23%     81.19% # Number of insts commited each cycle (Count)
system.cpu.commit.numCommittedDist::4            8367      0.65%     81.83% # Number of insts commited each cycle (Count)
system.cpu.commit.numCommittedDist::5           35845      2.77%     84.60% # Number of insts commited each cycle (Count)
system.cpu.commit.numCommittedDist::6           24119      1.86%     86.47% # Number of insts commited each cycle (Count)
system.cpu.commit.numCommittedDist::7            9285      0.72%     87.19% # Number of insts commited each cycle (Count)
system.cpu.commit.numCommittedDist::8          165817     12.81%    100.00% # Number of insts commited each cycle (Count)
system.cpu.commit.numCommittedDist::overflows            0      0.00%    100.00% # Number of insts commited each cycle (Count)
system.cpu.commit.numCommittedDist::min_value            0                       # Number of insts commited each cycle (Count)
system.cpu.commit.numCommittedDist::max_value            8                       # Number of insts commited each cycle (Count)
system.cpu.commit.numCommittedDist::total      1293950                       # Number of insts commited each cycle (Count)
system.cpu.commit.instsCommitted               927505                       # Number of instructions committed (Count)
system.cpu.commit.opsCommitted                2393654                       # Number of ops (including micro ops) committed (Count)
system.cpu.commit.memRefs                      306579                       # Number of memory references committed (Count)
system.cpu.commit.loads                        221275                       # Number of loads committed (Count)
system.cpu.commit.amos                              0                       # Number of atomic instructions committed (Count)
system.cpu.commit.membars                          16                       # Number of memory barriers committed (Count)
system.cpu.commit.branches                     172146                       # Number of branches committed (Count)
system.cpu.commit.vectorInstructions                0                       # Number of committed Vector instructions. (Count)
system.cpu.commit.floating                      56663                       # Number of committed floating point instructions. (Count)
system.cpu.commit.integer                     2305331                       # Number of committed integer instructions. (Count)
system.cpu.commit.functionCalls                 20160                       # Number of function calls committed. (Count)
system.cpu.commit.committedInstType_0::No_OpClass        27344      1.14%      1.14% # Class of committed instruction (Count)
system.cpu.commit.committedInstType_0::IntAlu      1804528     75.39%     76.53% # Class of committed instruction (Count)
system.cpu.commit.committedInstType_0::IntMult        22849      0.95%     77.48% # Class of committed instruction (Count)
system.cpu.commit.committedInstType_0::IntDiv       193301      8.08%     85.56% # Class of committed instruction (Count)
system.cpu.commit.committedInstType_0::FloatAdd          612      0.03%     85.59% # Class of committed instruction (Count)
system.cpu.commit.committedInstType_0::FloatCmp            0      0.00%     85.59% # Class of committed instruction (Count)
system.cpu.commit.committedInstType_0::FloatCvt           96      0.00%     85.59% # Class of committed instruction (Count)
system.cpu.commit.committedInstType_0::FloatMult            0      0.00%     85.59% # Class of committed instruction (Count)
system.cpu.commit.committedInstType_0::FloatMultAcc            0      0.00%     85.59% # Class of committed instruction (Count)
system.cpu.commit.committedInstType_0::FloatDiv            0      0.00%     85.59% # Class of committed instruction (Count)
system.cpu.commit.committedInstType_0::FloatMisc            0      0.00%     85.59% # Class of committed instruction (Count)
system.cpu.commit.committedInstType_0::FloatSqrt            0      0.00%     85.59% # Class of committed instruction (Count)
system.cpu.commit.committedInstType_0::SimdAdd          938      0.04%     85.63% # Class of committed instruction (Count)
system.cpu.commit.committedInstType_0::SimdAddAcc            0      0.00%     85.63% # Class of committed instruction (Count)
system.cpu.commit.committedInstType_0::SimdAlu        14252      0.60%     86.22% # Class of committed instruction (Count)
system.cpu.commit.committedInstType_0::SimdCmp            6      0.00%     86.22% # Class of committed instruction (Count)
system.cpu.commit.committedInstType_0::SimdCvt         2104      0.09%     86.31% # Class of committed instruction (Count)
system.cpu.commit.committedInstType_0::SimdMisc         8045      0.34%     86.65% # Class of committed instruction (Count)
system.cpu.commit.committedInstType_0::SimdMult            0      0.00%     86.65% # Class of committed instruction (Count)
system.cpu.commit.committedInstType_0::SimdMultAcc            0      0.00%     86.65% # Class of committed instruction (Count)
system.cpu.commit.committedInstType_0::SimdShift          507      0.02%     86.67% # Class of committed instruction (Count)
system.cpu.commit.committedInstType_0::SimdShiftAcc            0      0.00%     86.67% # Class of committed instruction (Count)
system.cpu.commit.committedInstType_0::SimdDiv            0      0.00%     86.67% # Class of committed instruction (Count)
system.cpu.commit.committedInstType_0::SimdSqrt            0      0.00%     86.67% # Class of committed instruction (Count)
system.cpu.commit.committedInstType_0::SimdFloatAdd            0      0.00%     86.67% # Class of committed instruction (Count)
system.cpu.commit.committedInstType_0::SimdFloatAlu            0      0.00%     86.67% # Class of committed instruction (Count)
system.cpu.commit.committedInstType_0::SimdFloatCmp            0      0.00%     86.67% # Class of committed instruction (Count)
system.cpu.commit.committedInstType_0::SimdFloatCvt         6241      0.26%     86.93% # Class of committed instruction (Count)
system.cpu.commit.committedInstType_0::SimdFloatDiv         6238      0.26%     87.19% # Class of committed instruction (Count)
system.cpu.commit.committedInstType_0::SimdFloatMisc            0      0.00%     87.19% # Class of committed instruction (Count)
system.cpu.commit.committedInstType_0::SimdFloatMult           13      0.00%     87.19% # Class of committed instruction (Count)
system.cpu.commit.committedInstType_0::SimdFloatMultAcc            0      0.00%     87.19% # Class of committed instruction (Count)
system.cpu.commit.committedInstType_0::SimdFloatSqrt            1      0.00%     87.19% # Class of committed instruction (Count)
system.cpu.commit.committedInstType_0::SimdReduceAdd            0      0.00%     87.19% # Class of committed instruction (Count)
system.cpu.commit.committedInstType_0::SimdReduceAlu            0      0.00%     87.19% # Class of committed instruction (Count)
system.cpu.commit.committedInstType_0::SimdReduceCmp            0      0.00%     87.19% # Class of committed instruction (Count)
system.cpu.commit.committedInstType_0::SimdFloatReduceAdd            0      0.00%     87.19% # Class of committed instruction (Count)
system.cpu.commit.committedInstType_0::SimdFloatReduceCmp            0      0.00%     87.19% # Class of committed instruction (Count)
system.cpu.commit.committedInstType_0::SimdAes            0      0.00%     87.19% # Class of committed instruction (Count)
system.cpu.commit.committedInstType_0::SimdAesMix            0      0.00%     87.19% # Class of committed instruction (Count)
system.cpu.commit.committedInstType_0::SimdSha1Hash            0      0.00%     87.19% # Class of committed instruction (Count)
system.cpu.commit.committedInstType_0::SimdSha1Hash2            0      0.00%     87.19% # Class of committed instruction (Count)
system.cpu.commit.committedInstType_0::SimdSha256Hash            0      0.00%     87.19% # Class of committed instruction (Count)
system.cpu.commit.committedInstType_0::SimdSha256Hash2            0      0.00%     87.19% # Class of committed instruction (Count)
system.cpu.commit.committedInstType_0::SimdShaSigma2            0      0.00%     87.19% # Class of committed instruction (Count)
system.cpu.commit.committedInstType_0::SimdShaSigma3            0      0.00%     87.19% # Class of committed instruction (Count)
system.cpu.commit.committedInstType_0::SimdPredAlu            0      0.00%     87.19% # Class of committed instruction (Count)
system.cpu.commit.committedInstType_0::MemRead       212470      8.88%     96.07% # Class of committed instruction (Count)
system.cpu.commit.committedInstType_0::MemWrite        77014      3.22%     99.29% # Class of committed instruction (Count)
system.cpu.commit.committedInstType_0::FloatMemRead         8805      0.37%     99.65% # Class of committed instruction (Count)
system.cpu.commit.committedInstType_0::FloatMemWrite         8290      0.35%    100.00% # Class of committed instruction (Count)
system.cpu.commit.committedInstType_0::IprAccess            0      0.00%    100.00% # Class of committed instruction (Count)
system.cpu.commit.committedInstType_0::InstPrefetch            0      0.00%    100.00% # Class of committed instruction (Count)
system.cpu.commit.committedInstType_0::total      2393654                       # Class of committed instruction (Count)
system.cpu.commit.commitEligibleSamples        165817                       # number cycles where commit BW limit reached (Cycle)
system.cpu.dcache.demandHits::cpu.data         256342                       # number of demand (read+write) hits (Count)
system.cpu.dcache.demandHits::total            256342                       # number of demand (read+write) hits (Count)
system.cpu.dcache.overallHits::cpu.data        256342                       # number of overall hits (Count)
system.cpu.dcache.overallHits::total           256342                       # number of overall hits (Count)
system.cpu.dcache.demandMisses::cpu.data        15950                       # number of demand (read+write) misses (Count)
system.cpu.dcache.demandMisses::total           15950                       # number of demand (read+write) misses (Count)
system.cpu.dcache.overallMisses::cpu.data        15950                       # number of overall misses (Count)
system.cpu.dcache.overallMisses::total          15950                       # number of overall misses (Count)
system.cpu.dcache.demandMissLatency::cpu.data   1062115817                       # number of demand (read+write) miss ticks (Tick)
system.cpu.dcache.demandMissLatency::total   1062115817                       # number of demand (read+write) miss ticks (Tick)
system.cpu.dcache.overallMissLatency::cpu.data   1062115817                       # number of overall miss ticks (Tick)
system.cpu.dcache.overallMissLatency::total   1062115817                       # number of overall miss ticks (Tick)
system.cpu.dcache.demandAccesses::cpu.data       272292                       # number of demand (read+write) accesses (Count)
system.cpu.dcache.demandAccesses::total        272292                       # number of demand (read+write) accesses (Count)
system.cpu.dcache.overallAccesses::cpu.data       272292                       # number of overall (read+write) accesses (Count)
system.cpu.dcache.overallAccesses::total       272292                       # number of overall (read+write) accesses (Count)
system.cpu.dcache.demandMissRate::cpu.data     0.058577                       # miss rate for demand accesses (Ratio)
system.cpu.dcache.demandMissRate::total      0.058577                       # miss rate for demand accesses (Ratio)
system.cpu.dcache.overallMissRate::cpu.data     0.058577                       # miss rate for overall accesses (Ratio)
system.cpu.dcache.overallMissRate::total     0.058577                       # miss rate for overall accesses (Ratio)
system.cpu.dcache.demandAvgMissLatency::cpu.data 66590.333354                       # average overall miss latency in ticks ((Tick/Count))
system.cpu.dcache.demandAvgMissLatency::total 66590.333354                       # average overall miss latency in ticks ((Tick/Count))
system.cpu.dcache.overallAvgMissLatency::cpu.data 66590.333354                       # average overall miss latency ((Tick/Count))
system.cpu.dcache.overallAvgMissLatency::total 66590.333354                       # average overall miss latency ((Tick/Count))
system.cpu.dcache.blockedCycles::no_mshrs        30111                       # number of cycles access was blocked (Cycle)
system.cpu.dcache.blockedCycles::no_targets            6                       # number of cycles access was blocked (Cycle)
system.cpu.dcache.blockedCauses::no_mshrs          482                       # number of times access was blocked (Count)
system.cpu.dcache.blockedCauses::no_targets            2                       # number of times access was blocked (Count)
system.cpu.dcache.avgBlocked::no_mshrs      62.470954                       # average number of cycles each access was blocked ((Cycle/Count))
system.cpu.dcache.avgBlocked::no_targets            3                       # average number of cycles each access was blocked ((Cycle/Count))
system.cpu.dcache.writebacks::writebacks         1714                       # number of writebacks (Count)
system.cpu.dcache.writebacks::total              1714                       # number of writebacks (Count)
system.cpu.dcache.demandMshrHits::cpu.data        11094                       # number of demand (read+write) MSHR hits (Count)
system.cpu.dcache.demandMshrHits::total         11094                       # number of demand (read+write) MSHR hits (Count)
system.cpu.dcache.overallMshrHits::cpu.data        11094                       # number of overall MSHR hits (Count)
system.cpu.dcache.overallMshrHits::total        11094                       # number of overall MSHR hits (Count)
system.cpu.dcache.demandMshrMisses::cpu.data         4856                       # number of demand (read+write) MSHR misses (Count)
system.cpu.dcache.demandMshrMisses::total         4856                       # number of demand (read+write) MSHR misses (Count)
system.cpu.dcache.overallMshrMisses::cpu.data         4856                       # number of overall MSHR misses (Count)
system.cpu.dcache.overallMshrMisses::total         4856                       # number of overall MSHR misses (Count)
system.cpu.dcache.demandMshrMissLatency::cpu.data    350645333                       # number of demand (read+write) MSHR miss ticks (Tick)
system.cpu.dcache.demandMshrMissLatency::total    350645333                       # number of demand (read+write) MSHR miss ticks (Tick)
system.cpu.dcache.overallMshrMissLatency::cpu.data    350645333                       # number of overall MSHR miss ticks (Tick)
system.cpu.dcache.overallMshrMissLatency::total    350645333                       # number of overall MSHR miss ticks (Tick)
system.cpu.dcache.demandMshrMissRate::cpu.data     0.017834                       # mshr miss ratio for demand accesses (Ratio)
system.cpu.dcache.demandMshrMissRate::total     0.017834                       # mshr miss ratio for demand accesses (Ratio)
system.cpu.dcache.overallMshrMissRate::cpu.data     0.017834                       # mshr miss ratio for overall accesses (Ratio)
system.cpu.dcache.overallMshrMissRate::total     0.017834                       # mshr miss ratio for overall accesses (Ratio)
system.cpu.dcache.demandAvgMshrMissLatency::cpu.data 72208.676483                       # average overall mshr miss latency ((Tick/Count))
system.cpu.dcache.demandAvgMshrMissLatency::total 72208.676483                       # average overall mshr miss latency ((Tick/Count))
system.cpu.dcache.overallAvgMshrMissLatency::cpu.data 72208.676483                       # average overall mshr miss latency ((Tick/Count))
system.cpu.dcache.overallAvgMshrMissLatency::total 72208.676483                       # average overall mshr miss latency ((Tick/Count))
system.cpu.dcache.replacements                   4344                       # number of replacements (Count)
system.cpu.dcache.LockedRMWReadReq.hits::cpu.data            8                       # number of LockedRMWReadReq hits (Count)
system.cpu.dcache.LockedRMWReadReq.hits::total            8                       # number of LockedRMWReadReq hits (Count)
system.cpu.dcache.LockedRMWReadReq.accesses::cpu.data            8                       # number of LockedRMWReadReq accesses(hits+misses) (Count)
system.cpu.dcache.LockedRMWReadReq.accesses::total            8                       # number of LockedRMWReadReq accesses(hits+misses) (Count)
system.cpu.dcache.LockedRMWReadReq.mshrMissLatency::cpu.data        25308                       # number of LockedRMWReadReq MSHR miss ticks (Tick)
system.cpu.dcache.LockedRMWReadReq.mshrMissLatency::total        25308                       # number of LockedRMWReadReq MSHR miss ticks (Tick)
system.cpu.dcache.LockedRMWReadReq.avgMshrMissLatency::cpu.data          inf                       # average LockedRMWReadReq mshr miss latency ((Tick/Count))
system.cpu.dcache.LockedRMWReadReq.avgMshrMissLatency::total          inf                       # average LockedRMWReadReq mshr miss latency ((Tick/Count))
system.cpu.dcache.LockedRMWWriteReq.hits::cpu.data            8                       # number of LockedRMWWriteReq hits (Count)
system.cpu.dcache.LockedRMWWriteReq.hits::total            8                       # number of LockedRMWWriteReq hits (Count)
system.cpu.dcache.LockedRMWWriteReq.accesses::cpu.data            8                       # number of LockedRMWWriteReq accesses(hits+misses) (Count)
system.cpu.dcache.LockedRMWWriteReq.accesses::total            8                       # number of LockedRMWWriteReq accesses(hits+misses) (Count)
system.cpu.dcache.ReadReq.hits::cpu.data       172710                       # number of ReadReq hits (Count)
system.cpu.dcache.ReadReq.hits::total          172710                       # number of ReadReq hits (Count)
system.cpu.dcache.ReadReq.misses::cpu.data        14284                       # number of ReadReq misses (Count)
system.cpu.dcache.ReadReq.misses::total         14284                       # number of ReadReq misses (Count)
system.cpu.dcache.ReadReq.missLatency::cpu.data    925086987                       # number of ReadReq miss ticks (Tick)
system.cpu.dcache.ReadReq.missLatency::total    925086987                       # number of ReadReq miss ticks (Tick)
system.cpu.dcache.ReadReq.accesses::cpu.data       186994                       # number of ReadReq accesses(hits+misses) (Count)
system.cpu.dcache.ReadReq.accesses::total       186994                       # number of ReadReq accesses(hits+misses) (Count)
system.cpu.dcache.ReadReq.missRate::cpu.data     0.076387                       # miss rate for ReadReq accesses (Ratio)
system.cpu.dcache.ReadReq.missRate::total     0.076387                       # miss rate for ReadReq accesses (Ratio)
system.cpu.dcache.ReadReq.avgMissLatency::cpu.data 64763.860753                       # average ReadReq miss latency ((Tick/Count))
system.cpu.dcache.ReadReq.avgMissLatency::total 64763.860753                       # average ReadReq miss latency ((Tick/Count))
system.cpu.dcache.ReadReq.mshrHits::cpu.data        11088                       # number of ReadReq MSHR hits (Count)
system.cpu.dcache.ReadReq.mshrHits::total        11088                       # number of ReadReq MSHR hits (Count)
system.cpu.dcache.ReadReq.mshrMisses::cpu.data         3196                       # number of ReadReq MSHR misses (Count)
system.cpu.dcache.ReadReq.mshrMisses::total         3196                       # number of ReadReq MSHR misses (Count)
system.cpu.dcache.ReadReq.mshrMissLatency::cpu.data    215038413                       # number of ReadReq MSHR miss ticks (Tick)
system.cpu.dcache.ReadReq.mshrMissLatency::total    215038413                       # number of ReadReq MSHR miss ticks (Tick)
system.cpu.dcache.ReadReq.mshrMissRate::cpu.data     0.017091                       # mshr miss rate for ReadReq accesses (Ratio)
system.cpu.dcache.ReadReq.mshrMissRate::total     0.017091                       # mshr miss rate for ReadReq accesses (Ratio)
system.cpu.dcache.ReadReq.avgMshrMissLatency::cpu.data 67283.608573                       # average ReadReq mshr miss latency ((Tick/Count))
system.cpu.dcache.ReadReq.avgMshrMissLatency::total 67283.608573                       # average ReadReq mshr miss latency ((Tick/Count))
system.cpu.dcache.WriteReq.hits::cpu.data        83632                       # number of WriteReq hits (Count)
system.cpu.dcache.WriteReq.hits::total          83632                       # number of WriteReq hits (Count)
system.cpu.dcache.WriteReq.misses::cpu.data         1666                       # number of WriteReq misses (Count)
system.cpu.dcache.WriteReq.misses::total         1666                       # number of WriteReq misses (Count)
system.cpu.dcache.WriteReq.missLatency::cpu.data    137028830                       # number of WriteReq miss ticks (Tick)
system.cpu.dcache.WriteReq.missLatency::total    137028830                       # number of WriteReq miss ticks (Tick)
system.cpu.dcache.WriteReq.accesses::cpu.data        85298                       # number of WriteReq accesses(hits+misses) (Count)
system.cpu.dcache.WriteReq.accesses::total        85298                       # number of WriteReq accesses(hits+misses) (Count)
system.cpu.dcache.WriteReq.missRate::cpu.data     0.019532                       # miss rate for WriteReq accesses (Ratio)
system.cpu.dcache.WriteReq.missRate::total     0.019532                       # miss rate for WriteReq accesses (Ratio)
system.cpu.dcache.WriteReq.avgMissLatency::cpu.data 82250.198079                       # average WriteReq miss latency ((Tick/Count))
system.cpu.dcache.WriteReq.avgMissLatency::total 82250.198079                       # average WriteReq miss latency ((Tick/Count))
system.cpu.dcache.WriteReq.mshrHits::cpu.data            6                       # number of WriteReq MSHR hits (Count)
system.cpu.dcache.WriteReq.mshrHits::total            6                       # number of WriteReq MSHR hits (Count)
system.cpu.dcache.WriteReq.mshrMisses::cpu.data         1660                       # number of WriteReq MSHR misses (Count)
system.cpu.dcache.WriteReq.mshrMisses::total         1660                       # number of WriteReq MSHR misses (Count)
system.cpu.dcache.WriteReq.mshrMissLatency::cpu.data    135606920                       # number of WriteReq MSHR miss ticks (Tick)
system.cpu.dcache.WriteReq.mshrMissLatency::total    135606920                       # number of WriteReq MSHR miss ticks (Tick)
system.cpu.dcache.WriteReq.mshrMissRate::cpu.data     0.019461                       # mshr miss rate for WriteReq accesses (Ratio)
system.cpu.dcache.WriteReq.mshrMissRate::total     0.019461                       # mshr miss rate for WriteReq accesses (Ratio)
system.cpu.dcache.WriteReq.avgMshrMissLatency::cpu.data 81690.915663                       # average WriteReq mshr miss latency ((Tick/Count))
system.cpu.dcache.WriteReq.avgMshrMissLatency::total 81690.915663                       # average WriteReq mshr miss latency ((Tick/Count))
system.cpu.dcache.power_state.pwrStateResidencyTicks::UNDEFINED    506754738                       # Cumulative time (in ticks) in various power states (Tick)
system.cpu.dcache.tags.tagsInUse           481.163602                       # Average ticks per tags in use ((Tick/Count))
system.cpu.dcache.tags.totalRefs               261214                       # Total number of references to valid blocks. (Count)
system.cpu.dcache.tags.sampledRefs               4856                       # Sample count of references to valid blocks. (Count)
system.cpu.dcache.tags.avgRefs              53.792010                       # Average number of references to valid blocks. ((Count/Count))
system.cpu.dcache.tags.warmupTick              189144                       # The tick when the warmup percentage was hit. (Tick)
system.cpu.dcache.tags.occupancies::cpu.data   481.163602                       # Average occupied blocks per tick, per requestor ((Count/Tick))
system.cpu.dcache.tags.avgOccs::cpu.data     0.939773                       # Average percentage of cache occupancy ((Ratio/Tick))
system.cpu.dcache.tags.avgOccs::total        0.939773                       # Average percentage of cache occupancy ((Ratio/Tick))
system.cpu.dcache.tags.occupanciesTaskId::1024          512                       # Occupied blocks per task id (Count)
system.cpu.dcache.tags.ageTaskId_1024::0           28                       # Occupied blocks per task id, per block age (Count)
system.cpu.dcache.tags.ageTaskId_1024::1           82                       # Occupied blocks per task id, per block age (Count)
system.cpu.dcache.tags.ageTaskId_1024::2          402                       # Occupied blocks per task id, per block age (Count)
system.cpu.dcache.tags.ratioOccsTaskId::1024            1                       # Ratio of occupied blocks and all blocks, per task id (Ratio)
system.cpu.dcache.tags.tagAccesses            2183320                       # Number of tag accesses (Count)
system.cpu.dcache.tags.dataAccesses           2183320                       # Number of data accesses (Count)
system.cpu.dcache.tags.power_state.pwrStateResidencyTicks::UNDEFINED    506754738                       # Cumulative time (in ticks) in various power states (Tick)
system.cpu.decode.idleCycles                   164521                       # Number of cycles decode is idle (Cycle)
system.cpu.decode.blockedCycles                806667                       # Number of cycles decode is blocked (Cycle)
system.cpu.decode.runCycles                    206937                       # Number of cycles decode is running (Cycle)
system.cpu.decode.unblockCycles                157569                       # Number of cycles decode is unblocking (Cycle)
system.cpu.decode.squashCycles                   7212                       # Number of cycles decode is squashing (Cycle)
system.cpu.decode.branchResolved                68911                       # Number of times decode resolved a branch (Count)
system.cpu.decode.branchMispred                   703                       # Number of times decode detected a branch misprediction (Count)
system.cpu.decode.decodedInsts                2813135                       # Number of instructions handled by decode (Count)
system.cpu.decode.squashedInsts                  3296                       # Number of squashed instructions handled by decode (Count)
system.cpu.dtb_walker_cache.blockedCycles::no_mshrs            0                       # number of cycles access was blocked (Cycle)
system.cpu.dtb_walker_cache.blockedCycles::no_targets            0                       # number of cycles access was blocked (Cycle)
system.cpu.dtb_walker_cache.blockedCauses::no_mshrs            0                       # number of times access was blocked (Count)
system.cpu.dtb_walker_cache.blockedCauses::no_targets            0                       # number of times access was blocked (Count)
system.cpu.dtb_walker_cache.avgBlocked::no_mshrs          nan                       # average number of cycles each access was blocked ((Cycle/Count))
system.cpu.dtb_walker_cache.avgBlocked::no_targets          nan                       # average number of cycles each access was blocked ((Cycle/Count))
system.cpu.dtb_walker_cache.replacements            0                       # number of replacements (Count)
system.cpu.dtb_walker_cache.power_state.pwrStateResidencyTicks::UNDEFINED    506754738                       # Cumulative time (in ticks) in various power states (Tick)
system.cpu.dtb_walker_cache.tags.tagsInUse            0                       # Average ticks per tags in use ((Tick/Count))
system.cpu.dtb_walker_cache.tags.totalRefs            0                       # Total number of references to valid blocks. (Count)
system.cpu.dtb_walker_cache.tags.sampledRefs            0                       # Sample count of references to valid blocks. (Count)
system.cpu.dtb_walker_cache.tags.avgRefs          nan                       # Average number of references to valid blocks. ((Count/Count))
system.cpu.dtb_walker_cache.tags.warmupTick            0                       # The tick when the warmup percentage was hit. (Tick)
system.cpu.dtb_walker_cache.tags.tagAccesses            0                       # Number of tag accesses (Count)
system.cpu.dtb_walker_cache.tags.dataAccesses            0                       # Number of data accesses (Count)
system.cpu.dtb_walker_cache.tags.power_state.pwrStateResidencyTicks::UNDEFINED    506754738                       # Cumulative time (in ticks) in various power states (Tick)
system.cpu.fetch.icacheStallCycles             209857                       # Number of cycles fetch is stalled on an Icache miss (Cycle)
system.cpu.fetch.insts                        1187606                       # Number of instructions fetch has processed (Count)
system.cpu.fetch.branches                      228745                       # Number of branches that fetch encountered (Count)
system.cpu.fetch.predictedBranches              99520                       # Number of branches that fetch has predicted taken (Count)
system.cpu.fetch.cycles                       1120581                       # Number of cycles fetch has run and was not squashing or blocked (Cycle)
system.cpu.fetch.squashCycles                   15796                       # Number of cycles fetch has spent squashing (Cycle)
system.cpu.fetch.miscStallCycles                  583                       # Number of cycles fetch has spent waiting on interrupts, or bad addresses, or out of MSHRs (Cycle)
system.cpu.fetch.pendingTrapStallCycles          3951                       # Number of stall cycles due to pending traps (Cycle)
system.cpu.fetch.icacheWaitRetryStallCycles           36                       # Number of stall cycles due to full MSHR (Cycle)
system.cpu.fetch.cacheLines                    146912                       # Number of cache lines fetched (Count)
system.cpu.fetch.icacheSquashes                  2327                       # Number of outstanding Icache misses that were squashed (Count)
system.cpu.fetch.nisnDist::samples            1342906                       # Number of instructions fetched each cycle (Total) (Count)
system.cpu.fetch.nisnDist::mean              2.158559                       # Number of instructions fetched each cycle (Total) (Count)
system.cpu.fetch.nisnDist::stdev             3.337782                       # Number of instructions fetched each cycle (Total) (Count)
system.cpu.fetch.nisnDist::underflows               0      0.00%      0.00% # Number of instructions fetched each cycle (Total) (Count)
system.cpu.fetch.nisnDist::0                   906999     67.54%     67.54% # Number of instructions fetched each cycle (Total) (Count)
system.cpu.fetch.nisnDist::1                    13071      0.97%     68.51% # Number of instructions fetched each cycle (Total) (Count)
system.cpu.fetch.nisnDist::2                    22147      1.65%     70.16% # Number of instructions fetched each cycle (Total) (Count)
system.cpu.fetch.nisnDist::3                    17100      1.27%     71.44% # Number of instructions fetched each cycle (Total) (Count)
system.cpu.fetch.nisnDist::4                    33787      2.52%     73.95% # Number of instructions fetched each cycle (Total) (Count)
system.cpu.fetch.nisnDist::5                    23024      1.71%     75.67% # Number of instructions fetched each cycle (Total) (Count)
system.cpu.fetch.nisnDist::6                    24404      1.82%     77.48% # Number of instructions fetched each cycle (Total) (Count)
system.cpu.fetch.nisnDist::7                    25607      1.91%     79.39% # Number of instructions fetched each cycle (Total) (Count)
system.cpu.fetch.nisnDist::8                   276767     20.61%    100.00% # Number of instructions fetched each cycle (Total) (Count)
system.cpu.fetch.nisnDist::overflows                0      0.00%    100.00% # Number of instructions fetched each cycle (Total) (Count)
system.cpu.fetch.nisnDist::min_value                0                       # Number of instructions fetched each cycle (Total) (Count)
system.cpu.fetch.nisnDist::max_value                8                       # Number of instructions fetched each cycle (Total) (Count)
system.cpu.fetch.nisnDist::total              1342906                       # Number of instructions fetched each cycle (Total) (Count)
system.cpu.fetch.branchRate                  0.150313                       # Number of branch fetches per cycle (Ratio)
system.cpu.fetch.rate                        0.780402                       # Number of inst fetches per cycle ((Count/Cycle))
system.cpu.icache.demandHits::cpu.inst         144990                       # number of demand (read+write) hits (Count)
system.cpu.icache.demandHits::total            144990                       # number of demand (read+write) hits (Count)
system.cpu.icache.overallHits::cpu.inst        144990                       # number of overall hits (Count)
system.cpu.icache.overallHits::total           144990                       # number of overall hits (Count)
system.cpu.icache.demandMisses::cpu.inst         1922                       # number of demand (read+write) misses (Count)
system.cpu.icache.demandMisses::total            1922                       # number of demand (read+write) misses (Count)
system.cpu.icache.overallMisses::cpu.inst         1922                       # number of overall misses (Count)
system.cpu.icache.overallMisses::total           1922                       # number of overall misses (Count)
system.cpu.icache.demandMissLatency::cpu.inst    155789054                       # number of demand (read+write) miss ticks (Tick)
system.cpu.icache.demandMissLatency::total    155789054                       # number of demand (read+write) miss ticks (Tick)
system.cpu.icache.overallMissLatency::cpu.inst    155789054                       # number of overall miss ticks (Tick)
system.cpu.icache.overallMissLatency::total    155789054                       # number of overall miss ticks (Tick)
system.cpu.icache.demandAccesses::cpu.inst       146912                       # number of demand (read+write) accesses (Count)
system.cpu.icache.demandAccesses::total        146912                       # number of demand (read+write) accesses (Count)
system.cpu.icache.overallAccesses::cpu.inst       146912                       # number of overall (read+write) accesses (Count)
system.cpu.icache.overallAccesses::total       146912                       # number of overall (read+write) accesses (Count)
system.cpu.icache.demandMissRate::cpu.inst     0.013083                       # miss rate for demand accesses (Ratio)
system.cpu.icache.demandMissRate::total      0.013083                       # miss rate for demand accesses (Ratio)
system.cpu.icache.overallMissRate::cpu.inst     0.013083                       # miss rate for overall accesses (Ratio)
system.cpu.icache.overallMissRate::total     0.013083                       # miss rate for overall accesses (Ratio)
system.cpu.icache.demandAvgMissLatency::cpu.inst 81055.699272                       # average overall miss latency in ticks ((Tick/Count))
system.cpu.icache.demandAvgMissLatency::total 81055.699272                       # average overall miss latency in ticks ((Tick/Count))
system.cpu.icache.overallAvgMissLatency::cpu.inst 81055.699272                       # average overall miss latency ((Tick/Count))
system.cpu.icache.overallAvgMissLatency::total 81055.699272                       # average overall miss latency ((Tick/Count))
system.cpu.icache.blockedCycles::no_mshrs          800                       # number of cycles access was blocked (Cycle)
system.cpu.icache.blockedCycles::no_targets            0                       # number of cycles access was blocked (Cycle)
system.cpu.icache.blockedCauses::no_mshrs            7                       # number of times access was blocked (Count)
system.cpu.icache.blockedCauses::no_targets            0                       # number of times access was blocked (Count)
system.cpu.icache.avgBlocked::no_mshrs     114.285714                       # average number of cycles each access was blocked ((Cycle/Count))
system.cpu.icache.avgBlocked::no_targets          nan                       # average number of cycles each access was blocked ((Cycle/Count))
system.cpu.icache.writebacks::writebacks          906                       # number of writebacks (Count)
system.cpu.icache.writebacks::total               906                       # number of writebacks (Count)
system.cpu.icache.demandMshrHits::cpu.inst          504                       # number of demand (read+write) MSHR hits (Count)
system.cpu.icache.demandMshrHits::total           504                       # number of demand (read+write) MSHR hits (Count)
system.cpu.icache.overallMshrHits::cpu.inst          504                       # number of overall MSHR hits (Count)
system.cpu.icache.overallMshrHits::total          504                       # number of overall MSHR hits (Count)
system.cpu.icache.demandMshrMisses::cpu.inst         1418                       # number of demand (read+write) MSHR misses (Count)
system.cpu.icache.demandMshrMisses::total         1418                       # number of demand (read+write) MSHR misses (Count)
system.cpu.icache.overallMshrMisses::cpu.inst         1418                       # number of overall MSHR misses (Count)
system.cpu.icache.overallMshrMisses::total         1418                       # number of overall MSHR misses (Count)
system.cpu.icache.demandMshrMissLatency::cpu.inst    118239641                       # number of demand (read+write) MSHR miss ticks (Tick)
system.cpu.icache.demandMshrMissLatency::total    118239641                       # number of demand (read+write) MSHR miss ticks (Tick)
system.cpu.icache.overallMshrMissLatency::cpu.inst    118239641                       # number of overall MSHR miss ticks (Tick)
system.cpu.icache.overallMshrMissLatency::total    118239641                       # number of overall MSHR miss ticks (Tick)
system.cpu.icache.demandMshrMissRate::cpu.inst     0.009652                       # mshr miss ratio for demand accesses (Ratio)
system.cpu.icache.demandMshrMissRate::total     0.009652                       # mshr miss ratio for demand accesses (Ratio)
system.cpu.icache.overallMshrMissRate::cpu.inst     0.009652                       # mshr miss ratio for overall accesses (Ratio)
system.cpu.icache.overallMshrMissRate::total     0.009652                       # mshr miss ratio for overall accesses (Ratio)
system.cpu.icache.demandAvgMshrMissLatency::cpu.inst 83384.796192                       # average overall mshr miss latency ((Tick/Count))
system.cpu.icache.demandAvgMshrMissLatency::total 83384.796192                       # average overall mshr miss latency ((Tick/Count))
system.cpu.icache.overallAvgMshrMissLatency::cpu.inst 83384.796192                       # average overall mshr miss latency ((Tick/Count))
system.cpu.icache.overallAvgMshrMissLatency::total 83384.796192                       # average overall mshr miss latency ((Tick/Count))
system.cpu.icache.replacements                    906                       # number of replacements (Count)
system.cpu.icache.ReadReq.hits::cpu.inst       144990                       # number of ReadReq hits (Count)
system.cpu.icache.ReadReq.hits::total          144990                       # number of ReadReq hits (Count)
system.cpu.icache.ReadReq.misses::cpu.inst         1922                       # number of ReadReq misses (Count)
system.cpu.icache.ReadReq.misses::total          1922                       # number of ReadReq misses (Count)
system.cpu.icache.ReadReq.missLatency::cpu.inst    155789054                       # number of ReadReq miss ticks (Tick)
system.cpu.icache.ReadReq.missLatency::total    155789054                       # number of ReadReq miss ticks (Tick)
system.cpu.icache.ReadReq.accesses::cpu.inst       146912                       # number of ReadReq accesses(hits+misses) (Count)
system.cpu.icache.ReadReq.accesses::total       146912                       # number of ReadReq accesses(hits+misses) (Count)
system.cpu.icache.ReadReq.missRate::cpu.inst     0.013083                       # miss rate for ReadReq accesses (Ratio)
system.cpu.icache.ReadReq.missRate::total     0.013083                       # miss rate for ReadReq accesses (Ratio)
system.cpu.icache.ReadReq.avgMissLatency::cpu.inst 81055.699272                       # average ReadReq miss latency ((Tick/Count))
system.cpu.icache.ReadReq.avgMissLatency::total 81055.699272                       # average ReadReq miss latency ((Tick/Count))
system.cpu.icache.ReadReq.mshrHits::cpu.inst          504                       # number of ReadReq MSHR hits (Count)
system.cpu.icache.ReadReq.mshrHits::total          504                       # number of ReadReq MSHR hits (Count)
system.cpu.icache.ReadReq.mshrMisses::cpu.inst         1418                       # number of ReadReq MSHR misses (Count)
system.cpu.icache.ReadReq.mshrMisses::total         1418                       # number of ReadReq MSHR misses (Count)
system.cpu.icache.ReadReq.mshrMissLatency::cpu.inst    118239641                       # number of ReadReq MSHR miss ticks (Tick)
system.cpu.icache.ReadReq.mshrMissLatency::total    118239641                       # number of ReadReq MSHR miss ticks (Tick)
system.cpu.icache.ReadReq.mshrMissRate::cpu.inst     0.009652                       # mshr miss rate for ReadReq accesses (Ratio)
system.cpu.icache.ReadReq.mshrMissRate::total     0.009652                       # mshr miss rate for ReadReq accesses (Ratio)
system.cpu.icache.ReadReq.avgMshrMissLatency::cpu.inst 83384.796192                       # average ReadReq mshr miss latency ((Tick/Count))
system.cpu.icache.ReadReq.avgMshrMissLatency::total 83384.796192                       # average ReadReq mshr miss latency ((Tick/Count))
system.cpu.icache.power_state.pwrStateResidencyTicks::UNDEFINED    506754738                       # Cumulative time (in ticks) in various power states (Tick)
system.cpu.icache.tags.tagsInUse           488.622427                       # Average ticks per tags in use ((Tick/Count))
system.cpu.icache.tags.totalRefs               146408                       # Total number of references to valid blocks. (Count)
system.cpu.icache.tags.sampledRefs               1418                       # Sample count of references to valid blocks. (Count)
system.cpu.icache.tags.avgRefs             103.249647                       # Average number of references to valid blocks. ((Count/Count))
system.cpu.icache.tags.warmupTick               92241                       # The tick when the warmup percentage was hit. (Tick)
system.cpu.icache.tags.occupancies::cpu.inst   488.622427                       # Average occupied blocks per tick, per requestor ((Count/Tick))
system.cpu.icache.tags.avgOccs::cpu.inst     0.954341                       # Average percentage of cache occupancy ((Ratio/Tick))
system.cpu.icache.tags.avgOccs::total        0.954341                       # Average percentage of cache occupancy ((Ratio/Tick))
system.cpu.icache.tags.occupanciesTaskId::1024          512                       # Occupied blocks per task id (Count)
system.cpu.icache.tags.ageTaskId_1024::2          512                       # Occupied blocks per task id, per block age (Count)
system.cpu.icache.tags.ratioOccsTaskId::1024            1                       # Ratio of occupied blocks and all blocks, per task id (Ratio)
system.cpu.icache.tags.tagAccesses            1176714                       # Number of tag accesses (Count)
system.cpu.icache.tags.dataAccesses           1176714                       # Number of data accesses (Count)
system.cpu.icache.tags.power_state.pwrStateResidencyTicks::UNDEFINED    506754738                       # Cumulative time (in ticks) in various power states (Tick)
system.cpu.iew.idleCycles                           0                       # Number of cycles IEW is idle (Cycle)
system.cpu.iew.squashCycles                      7212                       # Number of cycles IEW is squashing (Cycle)
system.cpu.iew.blockCycles                     221781                       # Number of cycles IEW is blocking (Cycle)
system.cpu.iew.unblockCycles                    17353                       # Number of cycles IEW is unblocking (Cycle)
system.cpu.iew.dispatchedInsts                2733554                       # Number of instructions dispatched to IQ (Count)
system.cpu.iew.dispSquashedInsts                  636                       # Number of squashed instructions skipped by dispatch (Count)
system.cpu.iew.dispLoadInsts                   262585                       # Number of dispatched load instructions (Count)
system.cpu.iew.dispStoreInsts                   95258                       # Number of dispatched store instructions (Count)
system.cpu.iew.dispNonSpecInsts                    79                       # Number of dispatched non-speculative instructions (Count)
system.cpu.iew.iqFullEvents                      1130                       # Number of times the IQ has become full, causing a stall (Count)
system.cpu.iew.lsqFullEvents                    15593                       # Number of times the LSQ has become full, causing a stall (Count)
system.cpu.iew.memOrderViolationEvents             96                       # Number of memory order violations (Count)
system.cpu.iew.predictedTakenIncorrect           2358                       # Number of branches that were predicted taken incorrectly (Count)
system.cpu.iew.predictedNotTakenIncorrect         5748                       # Number of branches that were predicted not taken incorrectly (Count)
system.cpu.iew.branchMispredicts                 8106                       # Number of branch mispredicts detected at execute (Count)
system.cpu.iew.instsToCommit                  2602258                       # Cumulative count of insts sent to commit (Count)
system.cpu.iew.writebackCount                 2598785                       # Cumulative count of insts written-back (Count)
system.cpu.iew.producerInst                   2088370                       # Number of instructions producing a value (Count)
system.cpu.iew.consumerInst                   5212519                       # Number of instructions consuming a value (Count)
system.cpu.iew.wbRate                        1.707719                       # Insts written-back per cycle ((Count/Cycle))
system.cpu.iew.wbFanout                      0.400645                       # Average fanout of values written-back ((Count/Count))
system.cpu.interrupts.clk_domain.clock           5328                       # Clock period in ticks (Tick)
system.cpu.itb_walker_cache.blockedCycles::no_mshrs            0                       # number of cycles access was blocked (Cycle)
system.cpu.itb_walker_cache.blockedCycles::no_targets            0                       # number of cycles access was blocked (Cycle)
system.cpu.itb_walker_cache.blockedCauses::no_mshrs            0                       # number of times access was blocked (Count)
system.cpu.itb_walker_cache.blockedCauses::no_targets            0                       # number of times access was blocked (Count)
system.cpu.itb_walker_cache.avgBlocked::no_mshrs          nan                       # average number of cycles each access was blocked ((Cycle/Count))
system.cpu.itb_walker_cache.avgBlocked::no_targets          nan                       # average number of cycles each access was blocked ((Cycle/Count))
system.cpu.itb_walker_cache.replacements            0                       # number of replacements (Count)
system.cpu.itb_walker_cache.power_state.pwrStateResidencyTicks::UNDEFINED    506754738                       # Cumulative time (in ticks) in various power states (Tick)
system.cpu.itb_walker_cache.tags.tagsInUse            0                       # Average ticks per tags in use ((Tick/Count))
system.cpu.itb_walker_cache.tags.totalRefs            0                       # Total number of references to valid blocks. (Count)
system.cpu.itb_walker_cache.tags.sampledRefs            0                       # Sample count of references to valid blocks. (Count)
system.cpu.itb_walker_cache.tags.avgRefs          nan                       # Average number of references to valid blocks. ((Count/Count))
system.cpu.itb_walker_cache.tags.warmupTick            0                       # The tick when the warmup percentage was hit. (Tick)
system.cpu.itb_walker_cache.tags.tagAccesses            0                       # Number of tag accesses (Count)
system.cpu.itb_walker_cache.tags.dataAccesses            0                       # Number of data accesses (Count)
system.cpu.itb_walker_cache.tags.power_state.pwrStateResidencyTicks::UNDEFINED    506754738                       # Cumulative time (in ticks) in various power states (Tick)
system.cpu.l2cache.demandHits::cpu.inst            49                       # number of demand (read+write) hits (Count)
system.cpu.l2cache.demandHits::cpu.data           854                       # number of demand (read+write) hits (Count)
system.cpu.l2cache.demandHits::total              903                       # number of demand (read+write) hits (Count)
system.cpu.l2cache.overallHits::cpu.inst           49                       # number of overall hits (Count)
system.cpu.l2cache.overallHits::cpu.data          854                       # number of overall hits (Count)
system.cpu.l2cache.overallHits::total             903                       # number of overall hits (Count)
system.cpu.l2cache.demandMisses::cpu.inst         1366                       # number of demand (read+write) misses (Count)
system.cpu.l2cache.demandMisses::cpu.data         4002                       # number of demand (read+write) misses (Count)
system.cpu.l2cache.demandMisses::total           5368                       # number of demand (read+write) misses (Count)
system.cpu.l2cache.overallMisses::cpu.inst         1366                       # number of overall misses (Count)
system.cpu.l2cache.overallMisses::cpu.data         4002                       # number of overall misses (Count)
system.cpu.l2cache.overallMisses::total          5368                       # number of overall misses (Count)
system.cpu.l2cache.demandMissLatency::cpu.inst    116453763                       # number of demand (read+write) miss ticks (Tick)
[...]
system.mem_ctrls.dram.perBankRdBursts::10          315                       # Per bank write bursts (Count)
system.mem_ctrls.dram.perBankRdBursts::11          499                       # Per bank write bursts (Count)
system.mem_ctrls.dram.perBankRdBursts::12          390                       # Per bank write bursts (Count)
system.mem_ctrls.dram.perBankRdBursts::13          360                       # Per bank write bursts (Count)
system.mem_ctrls.dram.perBankRdBursts::14          263                       # Per bank write bursts (Count)
system.mem_ctrls.dram.perBankRdBursts::15          313                       # Per bank write bursts (Count)
system.mem_ctrls.dram.perBankWrBursts::0            0                       # Per bank write bursts (Count)
system.mem_ctrls.dram.perBankWrBursts::1            0                       # Per bank write bursts (Count)
system.mem_ctrls.dram.perBankWrBursts::2            0                       # Per bank write bursts (Count)
system.mem_ctrls.dram.perBankWrBursts::3            0                       # Per bank write bursts (Count)
system.mem_ctrls.dram.perBankWrBursts::4            0                       # Per bank write bursts (Count)
system.mem_ctrls.dram.perBankWrBursts::5            0                       # Per bank write bursts (Count)
system.mem_ctrls.dram.perBankWrBursts::6            0                       # Per bank write bursts (Count)
system.mem_ctrls.dram.perBankWrBursts::7            0                       # Per bank write bursts (Count)
system.mem_ctrls.dram.perBankWrBursts::8            0                       # Per bank write bursts (Count)
system.mem_ctrls.dram.perBankWrBursts::9            0                       # Per bank write bursts (Count)
system.mem_ctrls.dram.perBankWrBursts::10            0                       # Per bank write bursts (Count)
system.mem_ctrls.dram.perBankWrBursts::11            0                       # Per bank write bursts (Count)
system.mem_ctrls.dram.perBankWrBursts::12            0                       # Per bank write bursts (Count)
system.mem_ctrls.dram.perBankWrBursts::13            0                       # Per bank write bursts (Count)
system.mem_ctrls.dram.perBankWrBursts::14            0                       # Per bank write bursts (Count)
system.mem_ctrls.dram.perBankWrBursts::15            0                       # Per bank write bursts (Count)
system.mem_ctrls.dram.totQLat                40435234                       # Total ticks spent queuing (Tick)
system.mem_ctrls.dram.totBusLat              26840000                       # Total ticks spent in databus transfers (Tick)
system.mem_ctrls.dram.totMemAccLat          141085234                       # Total ticks spent from burst creation until serviced by the DRAM (Tick)
system.mem_ctrls.dram.avgQLat                 7532.64                       # Average queueing delay per DRAM burst ((Tick/Count))
system.mem_ctrls.dram.avgBusLat               5000.00                       # Average bus latency per DRAM burst ((Tick/Count))
system.mem_ctrls.dram.avgMemAccLat           26282.64                       # Average memory access latency per DRAM burst ((Tick/Count))
system.mem_ctrls.dram.readRowHits                4380                       # Number of row buffer hits during reads (Count)
system.mem_ctrls.dram.writeRowHits                  0                       # Number of row buffer hits during writes (Count)
system.mem_ctrls.dram.readRowHitRate            81.59                       # Row buffer hit rate for reads (Ratio)
system.mem_ctrls.dram.writeRowHitRate             nan                       # Row buffer hit rate for writes (Ratio)
system.mem_ctrls.dram.bytesPerActivate::samples          987                       # Bytes accessed per row activation (Byte)
system.mem_ctrls.dram.bytesPerActivate::mean   347.947315                       # Bytes accessed per row activation (Byte)
system.mem_ctrls.dram.bytesPerActivate::gmean   227.647957                       # Bytes accessed per row activation (Byte)
system.mem_ctrls.dram.bytesPerActivate::stdev   323.015679                       # Bytes accessed per row activation (Byte)
system.mem_ctrls.dram.bytesPerActivate::0-127          238     24.11%     24.11% # Bytes accessed per row activation (Byte)
system.mem_ctrls.dram.bytesPerActivate::128-255          199     20.16%     44.28% # Bytes accessed per row activation (Byte)
system.mem_ctrls.dram.bytesPerActivate::256-383          269     27.25%     71.53% # Bytes accessed per row activation (Byte)
system.mem_ctrls.dram.bytesPerActivate::384-511           48      4.86%     76.39% # Bytes accessed per row activation (Byte)
system.mem_ctrls.dram.bytesPerActivate::512-639           31      3.14%     79.53% # Bytes accessed per row activation (Byte)
system.mem_ctrls.dram.bytesPerActivate::640-767           31      3.14%     82.67% # Bytes accessed per row activation (Byte)
system.mem_ctrls.dram.bytesPerActivate::768-895           25      2.53%     85.21% # Bytes accessed per row activation (Byte)
system.mem_ctrls.dram.bytesPerActivate::896-1023           18      1.82%     87.03% # Bytes accessed per row activation (Byte)
system.mem_ctrls.dram.bytesPerActivate::1024-1151          128     12.97%    100.00% # Bytes accessed per row activation (Byte)
system.mem_ctrls.dram.bytesPerActivate::total          987                       # Bytes accessed per row activation (Byte)
system.mem_ctrls.dram.bytesRead                343552                       # Total bytes read (Byte)
system.mem_ctrls.dram.bytesWritten                  0                       # Total bytes written (Byte)
system.mem_ctrls.dram.avgRdBW              677.945314                       # Average DRAM read bandwidth in MiBytes/s ((Byte/Second))
system.mem_ctrls.dram.avgWrBW                       0                       # Average DRAM write bandwidth in MiBytes/s ((Byte/Second))
system.mem_ctrls.dram.peakBW                 12800.00                       # Theoretical peak bandwidth in MiByte/s ((Byte/Second))
system.mem_ctrls.dram.busUtil                    5.30                       # Data bus utilization in percentage (Ratio)
system.mem_ctrls.dram.busUtilRead                5.30                       # Data bus utilization in percentage for reads (Ratio)
system.mem_ctrls.dram.busUtilWrite               0.00                       # Data bus utilization in percentage for writes (Ratio)
system.mem_ctrls.dram.pageHitRate               81.59                       # Row buffer hit rate, read and write combined (Ratio)
system.mem_ctrls.dram.power_state.pwrStateResidencyTicks::UNDEFINED    506754738                       # Cumulative time (in ticks) in various power states (Tick)
system.mem_ctrls.dram.rank0.actEnergy         3648540                       # Energy for activate commands per rank (pJ) (Joule)
system.mem_ctrls.dram.rank0.preEnergy         1939245                       # Energy for precharge commands per rank (pJ) (Joule)
system.mem_ctrls.dram.rank0.readEnergy       18892440                       # Energy for read commands per rank (pJ) (Joule)
system.mem_ctrls.dram.rank0.writeEnergy             0                       # Energy for write commands per rank (pJ) (Joule)
system.mem_ctrls.dram.rank0.refreshEnergy 39951600.000000                       # Energy for refresh commands per rank (pJ) (Joule)
system.mem_ctrls.dram.rank0.actBackEnergy    195698100                       # Energy for active background per rank (pJ) (Joule)
system.mem_ctrls.dram.rank0.preBackEnergy     29795520                       # Energy for precharge background per rank (pJ) (Joule)
system.mem_ctrls.dram.rank0.actPowerDownEnergy            0                       # Energy for active power-down per rank (pJ) (Joule)
system.mem_ctrls.dram.rank0.prePowerDownEnergy            0                       # Energy for precharge power-down per rank (pJ) (Joule)
system.mem_ctrls.dram.rank0.selfRefreshEnergy            0                       # Energy for self refresh per rank (pJ) (Joule)
system.mem_ctrls.dram.rank0.totalEnergy     289925445                       # Total energy per rank (pJ) (Joule)
system.mem_ctrls.dram.rank0.averagePower   572.121824                       # Core power per rank (mW) (Watt)
system.mem_ctrls.dram.rank0.totalIdleTime            0                       # Total Idle time Per DRAM Rank (Tick)
system.mem_ctrls.dram.rank0.pwrStateTime::IDLE     75748389                       # Time in different power states (Tick)
system.mem_ctrls.dram.rank0.pwrStateTime::REF     16900000                       # Time in different power states (Tick)
system.mem_ctrls.dram.rank0.pwrStateTime::SREF            0                       # Time in different power states (Tick)
system.mem_ctrls.dram.rank0.pwrStateTime::PRE_PDN            0                       # Time in different power states (Tick)
system.mem_ctrls.dram.rank0.pwrStateTime::ACT    414106349                       # Time in different power states (Tick)
system.mem_ctrls.dram.rank0.pwrStateTime::ACT_PDN            0                       # Time in different power states (Tick)
system.mem_ctrls.dram.rank1.actEnergy         3405780                       # Energy for activate commands per rank (pJ) (Joule)
system.mem_ctrls.dram.rank1.preEnergy         1806420                       # Energy for precharge commands per rank (pJ) (Joule)
system.mem_ctrls.dram.rank1.readEnergy       19435080                       # Energy for read commands per rank (pJ) (Joule)
system.mem_ctrls.dram.rank1.writeEnergy             0                       # Energy for write commands per rank (pJ) (Joule)
system.mem_ctrls.dram.rank1.refreshEnergy 39951600.000000                       # Energy for refresh commands per rank (pJ) (Joule)
system.mem_ctrls.dram.rank1.actBackEnergy    192120780                       # Energy for active background per rank (pJ) (Joule)
system.mem_ctrls.dram.rank1.preBackEnergy     32808000                       # Energy for precharge background per rank (pJ) (Joule)
system.mem_ctrls.dram.rank1.actPowerDownEnergy            0                       # Energy for active power-down per rank (pJ) (Joule)
system.mem_ctrls.dram.rank1.prePowerDownEnergy            0                       # Energy for precharge power-down per rank (pJ) (Joule)
system.mem_ctrls.dram.rank1.selfRefreshEnergy            0                       # Energy for self refresh per rank (pJ) (Joule)
system.mem_ctrls.dram.rank1.totalEnergy     289527660                       # Total energy per rank (pJ) (Joule)
system.mem_ctrls.dram.rank1.averagePower   571.336858                       # Core power per rank (mW) (Watt)
system.mem_ctrls.dram.rank1.totalIdleTime            0                       # Total Idle time Per DRAM Rank (Tick)
system.mem_ctrls.dram.rank1.pwrStateTime::IDLE     83385081                       # Time in different power states (Tick)
system.mem_ctrls.dram.rank1.pwrStateTime::REF     16900000                       # Time in different power states (Tick)
system.mem_ctrls.dram.rank1.pwrStateTime::SREF            0                       # Time in different power states (Tick)
system.mem_ctrls.dram.rank1.pwrStateTime::PRE_PDN            0                       # Time in different power states (Tick)
system.mem_ctrls.dram.rank1.pwrStateTime::ACT    406469657                       # Time in different power states (Tick)
system.mem_ctrls.dram.rank1.pwrStateTime::ACT_PDN            0                       # Time in different power states (Tick)
system.mem_ctrls.power_state.pwrStateResidencyTicks::UNDEFINED    506754738                       # Cumulative time (in ticks) in various power states (Tick)
system.membus.transDist::ReadResp                3793                       # Transaction distribution (Count)
system.membus.transDist::ReadExReq               1575                       # Transaction distribution (Count)
system.membus.transDist::ReadExResp              1575                       # Transaction distribution (Count)
system.membus.transDist::ReadSharedReq           3793                       # Transaction distribution (Count)
system.membus.pktCount_system.l3.mem_side_port::system.mem_ctrls.port        10736                       # Packet count per connected requestor and responder (Count)
system.membus.pktCount_system.l3.mem_side_port::total        10736                       # Packet count per connected requestor and responder (Count)
system.membus.pktCount::total                   10736                       # Packet count per connected requestor and responder (Count)
system.membus.pktSize_system.l3.mem_side_port::system.mem_ctrls.port       343552                       # Cumulative packet size per connected requestor and responder (Byte)
system.membus.pktSize_system.l3.mem_side_port::total       343552                       # Cumulative packet size per connected requestor and responder (Byte)
system.membus.pktSize::total                   343552                       # Cumulative packet size per connected requestor and responder (Byte)
system.membus.snoops                                0                       # Total snoops (Count)
system.membus.snoopTraffic                          0                       # Total snoop traffic (Byte)
system.membus.snoopFanout::samples               5368                       # Request fanout histogram (Count)
system.membus.snoopFanout::mean                     0                       # Request fanout histogram (Count)
system.membus.snoopFanout::stdev                    0                       # Request fanout histogram (Count)
system.membus.snoopFanout::underflows               0      0.00%      0.00% # Request fanout histogram (Count)
system.membus.snoopFanout::0                     5368    100.00%    100.00% # Request fanout histogram (Count)
system.membus.snoopFanout::1                        0      0.00%    100.00% # Request fanout histogram (Count)
system.membus.snoopFanout::overflows                0      0.00%    100.00% # Request fanout histogram (Count)
system.membus.snoopFanout::min_value                0                       # Request fanout histogram (Count)
system.membus.snoopFanout::max_value                0                       # Request fanout histogram (Count)
system.membus.snoopFanout::total                 5368                       # Request fanout histogram (Count)
system.membus.power_state.pwrStateResidencyTicks::UNDEFINED    506754738                       # Cumulative time (in ticks) in various power states (Tick)
system.membus.reqLayer2.occupancy             7976189                       # Layer occupancy (ticks) (Tick)
system.membus.reqLayer2.utilization               0.0                       # Layer utilization (Ratio)
system.membus.respLayer1.occupancy           28456695                       # Layer occupancy (ticks) (Tick)
system.membus.respLayer1.utilization              0.1                       # Layer utilization (Ratio)
system.membus.snoop_filter.totRequests           5368                       # Total number of requests made to the snoop filter. (Count)
system.membus.snoop_filter.hitSingleRequests            0                       # Number of requests hitting in the snoop filter with a single holder of the requested data. (Count)
system.membus.snoop_filter.hitMultiRequests            0                       # Number of requests hitting in the snoop filter with multiple (>1) holders of the requested data. (Count)
system.membus.snoop_filter.totSnoops                0                       # Total number of snoops made to the snoop filter. (Count)
system.membus.snoop_filter.hitSingleSnoops            0                       # Number of snoops hitting in the snoop filter with a single holder of the requested data. (Count)
system.membus.snoop_filter.hitMultiSnoops            0                       # Number of snoops hitting in the snoop filter with multiple (>1) holders of the requested data. (Count)
system.tol3bus.transDist::ReadResp               3793                       # Transaction distribution (Count)
system.tol3bus.transDist::ReadExReq              1575                       # Transaction distribution (Count)
system.tol3bus.transDist::ReadExResp             1575                       # Transaction distribution (Count)
system.tol3bus.transDist::ReadSharedReq          3793                       # Transaction distribution (Count)
system.tol3bus.pktCount_system.cpu.l2cache.mem_side_port::system.l3.cpu_side_port        10736                       # Packet count per connected requestor and responder (Count)
system.tol3bus.pktSize_system.cpu.l2cache.mem_side_port::system.l3.cpu_side_port       343552                       # Cumulative packet size per connected requestor and responder (Byte)
system.tol3bus.snoops                               0                       # Total snoops (Count)
system.tol3bus.snoopTraffic                         0                       # Total snoop traffic (Byte)
system.tol3bus.snoopFanout::samples              5368                       # Request fanout histogram (Count)
system.tol3bus.snoopFanout::mean                    0                       # Request fanout histogram (Count)
system.tol3bus.snoopFanout::stdev                   0                       # Request fanout histogram (Count)
system.tol3bus.snoopFanout::underflows              0      0.00%      0.00% # Request fanout histogram (Count)
system.tol3bus.snoopFanout::0                    5368    100.00%    100.00% # Request fanout histogram (Count)
system.tol3bus.snoopFanout::1                       0      0.00%    100.00% # Request fanout histogram (Count)
system.tol3bus.snoopFanout::overflows               0      0.00%    100.00% # Request fanout histogram (Count)
system.tol3bus.snoopFanout::min_value               0                       # Request fanout histogram (Count)
system.tol3bus.snoopFanout::max_value               0                       # Request fanout histogram (Count)
system.tol3bus.snoopFanout::total                5368                       # Request fanout histogram (Count)
system.tol3bus.power_state.pwrStateResidencyTicks::UNDEFINED    506754738                       # Cumulative time (in ticks) in various power states (Tick)
system.tol3bus.reqLayer0.occupancy            1787544                       # Layer occupancy (ticks) (Tick)
system.tol3bus.reqLayer0.utilization              0.0                       # Layer utilization (Ratio)
system.tol3bus.respLayer0.occupancy           5362632                       # Layer occupancy (ticks) (Tick)
system.tol3bus.respLayer0.utilization             0.0                       # Layer utilization (Ratio)
system.tol3bus.snoop_filter.totRequests          5368                       # Total number of requests made to the snoop filter. (Count)
system.tol3bus.snoop_filter.hitSingleRequests            0                       # Number of requests hitting in the snoop filter with a single holder of the requested data. (Count)
system.tol3bus.snoop_filter.hitMultiRequests            0                       # Number of requests hitting in the snoop filter with multiple (>1) holders of the requested data. (Count)
system.tol3bus.snoop_filter.totSnoops               0                       # Total number of snoops made to the snoop filter. (Count)
system.tol3bus.snoop_filter.hitSingleSnoops            0                       # Number of snoops hitting in the snoop filter with a single holder of the requested data. (Count)
system.tol3bus.snoop_filter.hitMultiSnoops            0                       # Number of snoops hitting in the snoop filter with multiple (>1) holders of the requested data. (Count)
system.voltage_domain.voltage                       1                       # Voltage in Volts (Volt)
system.workload.inst.arm                            0                       # number of arm instructions executed (Count)
system.workload.inst.quiesce                        0                       # number of quiesce instructions executed (Count)

---------- End Simulation Statistics   ----------
