
---------- Begin Simulation Statistics ----------
simSeconds                                   0.006606                       # Number of seconds simulated (Second)
simTicks                                   6605981073                       # Number of ticks simulated (Tick)
finalTick                                  6605981073                       # Number of ticks from beginning of simulation (restored from checkpoints and never reset) (Tick)
simFreq                                  1000000000000                       # The number of ticks per simulated second ((Tick/Second))
hostSeconds                                    189.37                       # Real time elapsed on the host (Second)
hostTickRate                                 34883513                       # The number of ticks simulated per host second (ticks/s) ((Tick/Second))
hostMemory                                     900912                       # Number of bytes of host memory used (Byte)
simInsts                                     50779581                       # Number of instructions simulated (Count)
simOps                                       82860543                       # Number of ops (including micro ops) simulated (Count)
hostInstRate                                   268146                       # Simulator instruction rate (inst/s) ((Count/Second))
hostOpRate                                     437553                       # Simulator op (including micro ops) rate (op/s) ((Count/Second))
system.clk_domain.clock                          1000                       # Clock period in ticks (Tick)
system.cpu0.numCycles                        19687275                       # Number of cpu cycles simulated (Cycle)
system.cpu0.numWorkItemsStarted                     0                       # Number of work items this cpu started (Count)
system.cpu0.numWorkItemsCompleted                   0                       # Number of work items this cpu completed (Count)
system.cpu0.instsAdded                       49114468                       # Number of instructions added to the IQ (excludes non-spec) (Count)
system.cpu0.nonSpecInstsAdded                    1882                       # Number of non-speculative instructions added to the IQ (Count)
system.cpu0.instsIssued                      48913209                       # Number of instructions issued (Count)
system.cpu0.squashedInstsIssued                  5936                       # Number of squashed instructions issued (Count)
system.cpu0.squashedInstsExamined              736504                       # Number of squashed instructions iterated over during squash; mainly for profiling (Count)
system.cpu0.squashedOperandsExamined          1210933                       # Number of squashed operands that are examined and possibly removed from graph (Count)
system.cpu0.squashedNonSpecRemoved                931                       # Number of squashed non-spec instructions that were removed (Count)
system.cpu0.numIssuedDist::samples           19444171                       # Number of insts issued each cycle (Count)
system.cpu0.numIssuedDist::mean              2.515572                       # Number of insts issued each cycle (Count)
system.cpu0.numIssuedDist::stdev             2.583207                       # Number of insts issued each cycle (Count)
system.cpu0.numIssuedDist::underflows               0      0.00%      0.00% # Number of insts issued each cycle (Count)
system.cpu0.numIssuedDist::0                  7776303     39.99%     39.99% # Number of insts issued each cycle (Count)
system.cpu0.numIssuedDist::1                  1239980      6.38%     46.37% # Number of insts issued each cycle (Count)
system.cpu0.numIssuedDist::2                  1300502      6.69%     53.06% # Number of insts issued each cycle (Count)
system.cpu0.numIssuedDist::3                  2265307     11.65%     64.71% # Number of insts issued each cycle (Count)
system.cpu0.numIssuedDist::4                  2009938     10.34%     75.05% # Number of insts issued each cycle (Count)
system.cpu0.numIssuedDist::5                  1408362      7.24%     82.29% # Number of insts issued each cycle (Count)
system.cpu0.numIssuedDist::6                  1763737      9.07%     91.36% # Number of insts issued each cycle (Count)
system.cpu0.numIssuedDist::7                   828016      4.26%     95.62% # Number of insts issued each cycle (Count)
system.cpu0.numIssuedDist::8                   852026      4.38%    100.00% # Number of insts issued each cycle (Count)
system.cpu0.numIssuedDist::overflows                0      0.00%    100.00% # Number of insts issued each cycle (Count)
system.cpu0.numIssuedDist::min_value                0                       # Number of insts issued each cycle (Count)
system.cpu0.numIssuedDist::max_value                8                       # Number of insts issued each cycle (Count)
system.cpu0.numIssuedDist::total             19444171                       # Number of insts issued each cycle (Count)
system.cpu0.statFuBusy::No_OpClass                  0      0.00%      0.00% # attempts to use FU when none available (Count)
system.cpu0.statFuBusy::IntAlu                 207913     77.33%     77.33% # attempts to use FU when none available (Count)
system.cpu0.statFuBusy::IntMult                     0      0.00%     77.33% # attempts to use FU when none available (Count)
system.cpu0.statFuBusy::IntDiv                      0      0.00%     77.33% # attempts to use FU when none available (Count)
system.cpu0.statFuBusy::FloatAdd                    0      0.00%     77.33% # attempts to use FU when none available (Count)
system.cpu0.statFuBusy::FloatCmp                    0      0.00%     77.33% # attempts to use FU when none available (Count)
system.cpu0.statFuBusy::FloatCvt                    0      0.00%     77.33% # attempts to use FU when none available (Count)
system.cpu0.statFuBusy::FloatMult                   0      0.00%     77.33% # attempts to use FU when none available (Count)
system.cpu0.statFuBusy::FloatMultAcc                0      0.00%     77.33% # attempts to use FU when none available (Count)
system.cpu0.statFuBusy::FloatDiv                    0      0.00%     77.33% # attempts to use FU when none available (Count)
system.cpu0.statFuBusy::FloatMisc                   0      0.00%     77.33% # attempts to use FU when none available (Count)
system.cpu0.statFuBusy::FloatSqrt                   0      0.00%     77.33% # attempts to use FU when none available (Count)
system.cpu0.statFuBusy::SimdAdd                     1      0.00%     77.33% # attempts to use FU when none available (Count)
system.cpu0.statFuBusy::SimdAddAcc                  0      0.00%     77.33% # attempts to use FU when none available (Count)
system.cpu0.statFuBusy::SimdAlu                 18888      7.02%     84.35% # attempts to use FU when none available (Count)
system.cpu0.statFuBusy::SimdCmp                     0      0.00%     84.35% # attempts to use FU when none available (Count)
system.cpu0.statFuBusy::SimdCvt                   121      0.05%     84.40% # attempts to use FU when none available (Count)
system.cpu0.statFuBusy::SimdMisc                   24      0.01%     84.41% # attempts to use FU when none available (Count)
system.cpu0.statFuBusy::SimdMult                    0      0.00%     84.41% # attempts to use FU when none available (Count)
system.cpu0.statFuBusy::SimdMultAcc                 0      0.00%     84.41% # attempts to use FU when none available (Count)
system.cpu0.statFuBusy::SimdShift                  26      0.01%     84.42% # attempts to use FU when none available (Count)
system.cpu0.statFuBusy::SimdShiftAcc                0      0.00%     84.42% # attempts to use FU when none available (Count)
system.cpu0.statFuBusy::SimdDiv                     0      0.00%     84.42% # attempts to use FU when none available (Count)
system.cpu0.statFuBusy::SimdSqrt                    0      0.00%     84.42% # attempts to use FU when none available (Count)
system.cpu0.statFuBusy::SimdFloatAdd             1657      0.62%     85.03% # attempts to use FU when none available (Count)
system.cpu0.statFuBusy::SimdFloatAlu                0      0.00%     85.03% # attempts to use FU when none available (Count)
system.cpu0.statFuBusy::SimdFloatCmp                0      0.00%     85.03% # attempts to use FU when none available (Count)
system.cpu0.statFuBusy::SimdFloatCvt             8390      3.12%     88.15% # attempts to use FU when none available (Count)
system.cpu0.statFuBusy::SimdFloatDiv                0      0.00%     88.15% # attempts to use FU when none available (Count)
system.cpu0.statFuBusy::SimdFloatMisc               0      0.00%     88.15% # attempts to use FU when none available (Count)
system.cpu0.statFuBusy::SimdFloatMult           12449      4.63%     92.78% # attempts to use FU when none available (Count)
system.cpu0.statFuBusy::SimdFloatMultAcc            0      0.00%     92.78% # attempts to use FU when none available (Count)
system.cpu0.statFuBusy::SimdFloatSqrt               0      0.00%     92.78% # attempts to use FU when none available (Count)
system.cpu0.statFuBusy::SimdReduceAdd               0      0.00%     92.78% # attempts to use FU when none available (Count)
system.cpu0.statFuBusy::SimdReduceAlu               0      0.00%     92.78% # attempts to use FU when none available (Count)
system.cpu0.statFuBusy::SimdReduceCmp               0      0.00%     92.78% # attempts to use FU when none available (Count)
system.cpu0.statFuBusy::SimdFloatReduceAdd            0      0.00%     92.78% # attempts to use FU when none available (Count)
system.cpu0.statFuBusy::SimdFloatReduceCmp            0      0.00%     92.78% # attempts to use FU when none available (Count)
system.cpu0.statFuBusy::SimdAes                     0      0.00%     92.78% # attempts to use FU when none available (Count)
system.cpu0.statFuBusy::SimdAesMix                  0      0.00%     92.78% # attempts to use FU when none available (Count)
system.cpu0.statFuBusy::SimdSha1Hash                0      0.00%     92.78% # attempts to use FU when none available (Count)
system.cpu0.statFuBusy::SimdSha1Hash2               0      0.00%     92.78% # attempts to use FU when none available (Count)
system.cpu0.statFuBusy::SimdSha256Hash              0      0.00%     92.78% # attempts to use FU when none available (Count)
system.cpu0.statFuBusy::SimdSha256Hash2             0      0.00%     92.78% # attempts to use FU when none available (Count)
system.cpu0.statFuBusy::SimdShaSigma2               0      0.00%     92.78% # attempts to use FU when none available (Count)
system.cpu0.statFuBusy::SimdShaSigma3               0      0.00%     92.78% # attempts to use FU when none available (Count)
system.cpu0.statFuBusy::SimdPredAlu                 0      0.00%     92.78% # attempts to use FU when none available (Count)
system.cpu0.statFuBusy::MemRead                  1860      0.69%     93.47% # attempts to use FU when none available (Count)
system.cpu0.statFuBusy::MemWrite                  960      0.36%     93.83% # attempts to use FU when none available (Count)
system.cpu0.statFuBusy::FloatMemRead             7267      2.70%     96.53% # attempts to use FU when none available (Count)
system.cpu0.statFuBusy::FloatMemWrite            9318      3.47%    100.00% # attempts to use FU when none available (Count)
system.cpu0.statFuBusy::IprAccess                   0      0.00%    100.00% # attempts to use FU when none available (Count)
system.cpu0.statFuBusy::InstPrefetch                0      0.00%    100.00% # attempts to use FU when none available (Count)
system.cpu0.statIssuedInstType_0::No_OpClass       741252      1.52%      1.52% # Number of instructions issued per FU type, per thread (Count)
system.cpu0.statIssuedInstType_0::IntAlu     28929639     59.14%     60.66% # Number of instructions issued per FU type, per thread (Count)
system.cpu0.statIssuedInstType_0::IntMult       132089      0.27%     60.93% # Number of instructions issued per FU type, per thread (Count)
system.cpu0.statIssuedInstType_0::IntDiv         9937      0.02%     60.95% # Number of instructions issued per FU type, per thread (Count)
system.cpu0.statIssuedInstType_0::FloatAdd      2535648      5.18%     66.13% # Number of instructions issued per FU type, per thread (Count)
system.cpu0.statIssuedInstType_0::FloatCmp            0      0.00%     66.13% # Number of instructions issued per FU type, per thread (Count)
system.cpu0.statIssuedInstType_0::FloatCvt          192      0.00%     66.14% # Number of instructions issued per FU type, per thread (Count)
system.cpu0.statIssuedInstType_0::FloatMult            0      0.00%     66.14% # Number of instructions issued per FU type, per thread (Count)
system.cpu0.statIssuedInstType_0::FloatMultAcc            0      0.00%     66.14% # Number of instructions issued per FU type, per thread (Count)
system.cpu0.statIssuedInstType_0::FloatDiv            0      0.00%     66.14% # Number of instructions issued per FU type, per thread (Count)
system.cpu0.statIssuedInstType_0::FloatMisc            0      0.00%     66.14% # Number of instructions issued per FU type, per thread (Count)
system.cpu0.statIssuedInstType_0::FloatSqrt            0      0.00%     66.14% # Number of instructions issued per FU type, per thread (Count)
system.cpu0.statIssuedInstType_0::SimdAdd         1428      0.00%     66.14% # Number of instructions issued per FU type, per thread (Count)
system.cpu0.statIssuedInstType_0::SimdAddAcc            0      0.00%     66.14% # Number of instructions issued per FU type, per thread (Count)
system.cpu0.statIssuedInstType_0::SimdAlu      1337317      2.73%     68.87% # Number of instructions issued per FU type, per thread (Count)
system.cpu0.statIssuedInstType_0::SimdCmp            6      0.00%     68.87% # Number of instructions issued per FU type, per thread (Count)
system.cpu0.statIssuedInstType_0::SimdCvt         4010      0.01%     68.88% # Number of instructions issued per FU type, per thread (Count)
system.cpu0.statIssuedInstType_0::SimdMisc       381108      0.78%     69.66% # Number of instructions issued per FU type, per thread (Count)
system.cpu0.statIssuedInstType_0::SimdMult            0      0.00%     69.66% # Number of instructions issued per FU type, per thread (Count)
system.cpu0.statIssuedInstType_0::SimdMultAcc            0      0.00%     69.66% # Number of instructions issued per FU type, per thread (Count)
system.cpu0.statIssuedInstType_0::SimdShift         1407      0.00%     69.66% # Number of instructions issued per FU type, per thread (Count)
system.cpu0.statIssuedInstType_0::SimdShiftAcc            0      0.00%     69.66% # Number of instructions issued per FU type, per thread (Count)
system.cpu0.statIssuedInstType_0::SimdDiv            0      0.00%     69.66% # Number of instructions issued per FU type, per thread (Count)
system.cpu0.statIssuedInstType_0::SimdSqrt            0      0.00%     69.66% # Number of instructions issued per FU type, per thread (Count)
system.cpu0.statIssuedInstType_0::SimdFloatAdd      2617990      5.35%     75.01% # Number of instructions issued per FU type, per thread (Count)
system.cpu0.statIssuedInstType_0::SimdFloatAlu            0      0.00%     75.01% # Number of instructions issued per FU type, per thread (Count)
system.cpu0.statIssuedInstType_0::SimdFloatCmp            0      0.00%     75.01% # Number of instructions issued per FU type, per thread (Count)
system.cpu0.statIssuedInstType_0::SimdFloatCvt       283825      0.58%     75.59% # Number of instructions issued per FU type, per thread (Count)
system.cpu0.statIssuedInstType_0::SimdFloatDiv        66067      0.14%     75.73% # Number of instructions issued per FU type, per thread (Count)
system.cpu0.statIssuedInstType_0::SimdFloatMisc            0      0.00%     75.73% # Number of instructions issued per FU type, per thread (Count)
system.cpu0.statIssuedInstType_0::SimdFloatMult      2278737      4.66%     80.39% # Number of instructions issued per FU type, per thread (Count)
system.cpu0.statIssuedInstType_0::SimdFloatMultAcc            0      0.00%     80.39% # Number of instructions issued per FU type, per thread (Count)
system.cpu0.statIssuedInstType_0::SimdFloatSqrt            0      0.00%     80.39% # Number of instructions issued per FU type, per thread (Count)
system.cpu0.statIssuedInstType_0::SimdReduceAdd            0      0.00%     80.39% # Number of instructions issued per FU type, per thread (Count)
system.cpu0.statIssuedInstType_0::SimdReduceAlu            0      0.00%     80.39% # Number of instructions issued per FU type, per thread (Count)
system.cpu0.statIssuedInstType_0::SimdReduceCmp            0      0.00%     80.39% # Number of instructions issued per FU type, per thread (Count)
system.cpu0.statIssuedInstType_0::SimdFloatReduceAdd            0      0.00%     80.39% # Number of instructions issued per FU type, per thread (Count)
system.cpu0.statIssuedInstType_0::SimdFloatReduceCmp            0      0.00%     80.39% # Number of instructions issued per FU type, per thread (Count)
system.cpu0.statIssuedInstType_0::SimdAes            0      0.00%     80.39% # Number of instructions issued per FU type, per thread (Count)
system.cpu0.statIssuedInstType_0::SimdAesMix            0      0.00%     80.39% # Number of instructions issued per FU type, per thread (Count)
system.cpu0.statIssuedInstType_0::SimdSha1Hash            0      0.00%     80.39% # Number of instructions issued per FU type, per thread (Count)
system.cpu0.statIssuedInstType_0::SimdSha1Hash2            0      0.00%     80.39% # Number of instructions issued per FU type, per thread (Count)
system.cpu0.statIssuedInstType_0::SimdSha256Hash            0      0.00%     80.39% # Number of instructions issued per FU type, per thread (Count)
system.cpu0.statIssuedInstType_0::SimdSha256Hash2            0      0.00%     80.39% # Number of instructions issued per FU type, per thread (Count)
system.cpu0.statIssuedInstType_0::SimdShaSigma2            0      0.00%     80.39% # Number of instructions issued per FU type, per thread (Count)
system.cpu0.statIssuedInstType_0::SimdShaSigma3            0      0.00%     80.39% # Number of instructions issued per FU type, per thread (Count)
system.cpu0.statIssuedInstType_0::SimdPredAlu            0      0.00%     80.39% # Number of instructions issued per FU type, per thread (Count)
system.cpu0.statIssuedInstType_0::MemRead      3196788      6.54%     86.92% # Number of instructions issued per FU type, per thread (Count)
system.cpu0.statIssuedInstType_0::MemWrite      1615010      3.30%     90.23% # Number of instructions issued per FU type, per thread (Count)
system.cpu0.statIssuedInstType_0::FloatMemRead      3259889      6.66%     96.89% # Number of instructions issued per FU type, per thread (Count)
system.cpu0.statIssuedInstType_0::FloatMemWrite      1520870      3.11%    100.00% # Number of instructions issued per FU type, per thread (Count)
system.cpu0.statIssuedInstType_0::IprAccess            0      0.00%    100.00% # Number of instructions issued per FU type, per thread (Count)
system.cpu0.statIssuedInstType_0::InstPrefetch            0      0.00%    100.00% # Number of instructions issued per FU type, per thread (Count)
system.cpu0.statIssuedInstType_0::total      48913209                       # Number of instructions issued per FU type, per thread (Count)
system.cpu0.issueRate                        2.484509                       # Inst issue rate ((Count/Cycle))
system.cpu0.fuBusy                             268874                       # FU busy when requested (Count)
system.cpu0.fuBusyRate                       0.005497                       # FU busy rate (busy events/executed inst) ((Count/Count))
system.cpu0.intInstQueueReads                82668279                       # Number of integer instruction queue reads (Count)
system.cpu0.intInstQueueWrites               32291275                       # Number of integer instruction queue writes (Count)
system.cpu0.intInstQueueWakeupAccesses       31463078                       # Number of integer instruction queue wakeup accesses (Count)
system.cpu0.fpInstQueueReads                 34877120                       # Number of floating instruction queue reads (Count)
system.cpu0.fpInstQueueWrites                17561857                       # Number of floating instruction queue writes (Count)
system.cpu0.fpInstQueueWakeupAccesses        17366105                       # Number of floating instruction queue wakeup accesses (Count)
system.cpu0.vecInstQueueReads                       0                       # Number of vector instruction queue reads (Count)
system.cpu0.vecInstQueueWrites                      0                       # Number of vector instruction queue writes (Count)
system.cpu0.vecInstQueueWakeupAccesses              0                       # Number of vector instruction queue wakeup accesses (Count)
system.cpu0.intAluAccesses                   30970930                       # Number of integer alu accesses (Count)
system.cpu0.fpAluAccesses                    17469901                       # Number of floating point alu accesses (Count)
system.cpu0.vecAluAccesses                          0                       # Number of vector alu accesses (Count)
system.cpu0.numInsts                         48854856                       # Number of executed instructions (Count)
system.cpu0.numLoadInsts                      6442566                       # Number of load instructions executed (Count)
system.cpu0.numSquashedInsts                    58353                       # Number of squashed instructions skipped in execute (Count)
system.cpu0.numSwp                                  0                       # Number of swp insts executed (Count)
system.cpu0.numNop                                  0                       # Number of nop insts executed (Count)
system.cpu0.numRefs                           9575075                       # Number of memory reference insts executed (Count)
system.cpu0.numBranches                       3033248                       # Number of branches executed (Count)
system.cpu0.numStoreInsts                     3132509                       # Number of stores executed (Count)
system.cpu0.numRate                          2.481545                       # Inst execution rate ((Count/Cycle))
system.cpu0.timesIdled                           1354                       # Number of times that the entire CPU went into an idle state and unscheduled itself (Count)
system.cpu0.idleCycles                         243104                       # Total number of cycles that the CPU has spent unscheduled due to idling (Cycle)
system.cpu0.quiesceCycles                      150507                       # Total number of cycles that CPU has spent quiesced or waiting for an interrupt (Cycle)
system.cpu0.committedInsts                   28320565                       # Number of Instructions Simulated (Count)
system.cpu0.committedOps                     48379840                       # Number of Ops (including micro ops) Simulated (Count)
system.cpu0.cpi                              0.695158                       # CPI: Cycles Per Instruction ((Cycle/Count))
system.cpu0.totalCpi                         0.695158                       # CPI: Total CPI of All Threads ((Cycle/Count))
system.cpu0.ipc                              1.438521                       # IPC: Instructions Per Cycle ((Count/Cycle))
system.cpu0.totalIpc                         1.438521                       # IPC: Total IPC of All Threads ((Count/Cycle))
system.cpu0.intRegfileReads                  47444955                       # Number of integer regfile reads (Count)
system.cpu0.intRegfileWrites                 24742764                       # Number of integer regfile writes (Count)
system.cpu0.fpRegfileReads                   26324127                       # Number of floating regfile reads (Count)
system.cpu0.fpRegfileWrites                  15564270                       # Number of floating regfile writes (Count)
system.cpu0.ccRegfileReads                   13545273                       # number of cc regfile reads (Count)
system.cpu0.ccRegfileWrites                  14490820                       # number of cc regfile writes (Count)
system.cpu0.miscRegfileReads                 16672171                       # number of misc regfile reads (Count)
system.cpu0.miscRegfileWrites                     108                       # number of misc regfile writes (Count)
system.cpu0.MemDepUnit__0.insertedLoads       6464422                       # Number of loads inserted to the mem dependence unit. (Count)
system.cpu0.MemDepUnit__0.insertedStores      3149728                       # Number of stores inserted to the mem dependence unit. (Count)
system.cpu0.MemDepUnit__0.conflictingLoads       652289                       # Number of conflicting loads. (Count)
system.cpu0.MemDepUnit__0.conflictingStores       147632                       # Number of conflicting stores. (Count)
system.cpu0.MemDepUnit__1.insertedLoads             0                       # Number of loads inserted to the mem dependence unit. (Count)
system.cpu0.MemDepUnit__1.insertedStores            0                       # Number of stores inserted to the mem dependence unit. (Count)
system.cpu0.MemDepUnit__1.conflictingLoads            0                       # Number of conflicting loads. (Count)
system.cpu0.MemDepUnit__1.conflictingStores            0                       # Number of conflicting stores. (Count)
system.cpu0.MemDepUnit__2.insertedLoads             0                       # Number of loads inserted to the mem dependence unit. (Count)
system.cpu0.MemDepUnit__2.insertedStores            0                       # Number of stores inserted to the mem dependence unit. (Count)
system.cpu0.MemDepUnit__2.conflictingLoads            0                       # Number of conflicting loads. (Count)
system.cpu0.MemDepUnit__2.conflictingStores            0                       # Number of conflicting stores. (Count)
system.cpu0.MemDepUnit__3.insertedLoads             0                       # Number of loads inserted to the mem dependence unit. (Count)
system.cpu0.MemDepUnit__3.insertedStores            0                       # Number of stores inserted to the mem dependence unit. (Count)
system.cpu0.MemDepUnit__3.conflictingLoads            0                       # Number of conflicting loads. (Count)
system.cpu0.MemDepUnit__3.conflictingStores            0                       # Number of conflicting stores. (Count)
system.cpu0.branchPred.lookups                3102042                       # Number of BP lookups (Count)
system.cpu0.branchPred.condPredicted          1860846                       # Number of conditional branches predicted (Count)
system.cpu0.branchPred.condIncorrect            18851                       # Number of conditional branches incorrect (Count)
system.cpu0.branchPred.BTBLookups             1429133                       # Number of BTB lookups (Count)
system.cpu0.branchPred.BTBHits                1425910                       # Number of BTB hits (Count)
system.cpu0.branchPred.BTBHitRatio           0.997745                       # BTB Hit Ratio (Ratio)
system.cpu0.branchPred.RASUsed                 464094                       # Number of times the RAS was used to get a target. (Count)
system.cpu0.branchPred.RASIncorrect                 7                       # Number of incorrect RAS predictions. (Count)
system.cpu0.branchPred.indirectLookups         202910                       # Number of indirect predictor lookups. (Count)
system.cpu0.branchPred.indirectHits            198992                       # Number of indirect target hits. (Count)
system.cpu0.branchPred.indirectMisses            3918                       # Number of indirect misses. (Count)
system.cpu0.branchPred.indirectMispredicted          771                       # Number of mispredicted indirect branches. (Count)
system.cpu0.commit.commitSquashedInsts         704966                       # The number of squashed insts skipped by commit (Count)
system.cpu0.commit.commitNonSpecStalls            951                       # The number of times commit has been forced to stall to communicate backwards (Count)
system.cpu0.commit.branchMispredicts            18553                       # The number of times a branch was mispredicted (Count)
system.cpu0.commit.numCommittedDist::samples     19344189                       # Number of insts commited each cycle (Count)
system.cpu0.commit.numCommittedDist::mean     2.501001                       # Number of insts commited each cycle (Count)
system.cpu0.commit.numCommittedDist::stdev     3.058316                       # Number of insts commited each cycle (Count)
system.cpu0.commit.numCommittedDist::underflows            0      0.00%      0.00% # Number of insts commited each cycle (Count)
system.cpu0.commit.numCommittedDist::0        8184456     42.31%     42.31% # Number of insts commited each cycle (Count)
system.cpu0.commit.numCommittedDist::1        2469823     12.77%     55.08% # Number of insts commited each cycle (Count)
system.cpu0.commit.numCommittedDist::2        2048892     10.59%     65.67% # Number of insts commited each cycle (Count)
system.cpu0.commit.numCommittedDist::3        1121672      5.80%     71.47% # Number of insts commited each cycle (Count)
system.cpu0.commit.numCommittedDist::4         796262      4.12%     75.58% # Number of insts commited each cycle (Count)
system.cpu0.commit.numCommittedDist::5         545649      2.82%     78.40% # Number of insts commited each cycle (Count)
system.cpu0.commit.numCommittedDist::6         357791      1.85%     80.25% # Number of insts commited each cycle (Count)
system.cpu0.commit.numCommittedDist::7         169974      0.88%     81.13% # Number of insts commited each cycle (Count)
system.cpu0.commit.numCommittedDist::8        3649670     18.87%    100.00% # Number of insts commited each cycle (Count)
system.cpu0.commit.numCommittedDist::overflows            0      0.00%    100.00% # Number of insts commited each cycle (Count)
system.cpu0.commit.numCommittedDist::min_value            0                       # Number of insts commited each cycle (Count)
system.cpu0.commit.numCommittedDist::max_value            8                       # Number of insts commited each cycle (Count)
system.cpu0.commit.numCommittedDist::total     19344189                       # Number of insts commited each cycle (Count)
system.cpu0.commit.instsCommitted            28320565                       # Number of instructions committed (Count)
system.cpu0.commit.opsCommitted              48379840                       # Number of ops (including micro ops) committed (Count)
system.cpu0.commit.memRefs                    9497704                       # Number of memory references committed (Count)
system.cpu0.commit.loads                      6381821                       # Number of loads committed (Count)
system.cpu0.commit.amos                             0                       # Number of atomic instructions committed (Count)
system.cpu0.commit.membars                        562                       # Number of memory barriers committed (Count)
system.cpu0.commit.branches                   3002206                       # Number of branches committed (Count)
system.cpu0.commit.vectorInstructions               0                       # Number of committed Vector instructions. (Count)
system.cpu0.commit.floating                  17307865                       # Number of committed floating point instructions. (Count)
system.cpu0.commit.integer                   35458905                       # Number of committed integer instructions. (Count)
system.cpu0.commit.functionCalls               461445                       # Number of function calls committed. (Count)
system.cpu0.commit.committedInstType_0::No_OpClass       727254      1.50%      1.50% # Class of committed instruction (Count)
system.cpu0.commit.committedInstType_0::IntAlu     28550883     59.01%     60.52% # Class of committed instruction (Count)
system.cpu0.commit.committedInstType_0::IntMult       131792      0.27%     60.79% # Class of committed instruction (Count)
system.cpu0.commit.committedInstType_0::IntDiv         9704      0.02%     60.81% # Class of committed instruction (Count)
system.cpu0.commit.committedInstType_0::FloatAdd      2508291      5.18%     65.99% # Class of committed instruction (Count)
system.cpu0.commit.committedInstType_0::FloatCmp            0      0.00%     65.99% # Class of committed instruction (Count)
system.cpu0.commit.committedInstType_0::FloatCvt          192      0.00%     65.99% # Class of committed instruction (Count)
system.cpu0.commit.committedInstType_0::FloatMult            0      0.00%     65.99% # Class of committed instruction (Count)
system.cpu0.commit.committedInstType_0::FloatMultAcc            0      0.00%     65.99% # Class of committed instruction (Count)
system.cpu0.commit.committedInstType_0::FloatDiv            0      0.00%     65.99% # Class of committed instruction (Count)
system.cpu0.commit.committedInstType_0::FloatMisc            0      0.00%     65.99% # Class of committed instruction (Count)
system.cpu0.commit.committedInstType_0::FloatSqrt            0      0.00%     65.99% # Class of committed instruction (Count)
system.cpu0.commit.committedInstType_0::SimdAdd         1002      0.00%     66.00% # Class of committed instruction (Count)
system.cpu0.commit.committedInstType_0::SimdAddAcc            0      0.00%     66.00% # Class of committed instruction (Count)
system.cpu0.commit.committedInstType_0::SimdAlu      1328829      2.75%     68.74% # Class of committed instruction (Count)
system.cpu0.commit.committedInstType_0::SimdCmp            6      0.00%     68.74% # Class of committed instruction (Count)
system.cpu0.commit.committedInstType_0::SimdCvt         2620      0.01%     68.75% # Class of committed instruction (Count)
system.cpu0.commit.committedInstType_0::SimdMisc       379434      0.78%     69.53% # Class of committed instruction (Count)
system.cpu0.commit.committedInstType_0::SimdMult            0      0.00%     69.53% # Class of committed instruction (Count)
system.cpu0.commit.committedInstType_0::SimdMultAcc            0      0.00%     69.53% # Class of committed instruction (Count)
system.cpu0.commit.committedInstType_0::SimdShift          601      0.00%     69.53% # Class of committed instruction (Count)
system.cpu0.commit.committedInstType_0::SimdShiftAcc            0      0.00%     69.53% # Class of committed instruction (Count)
system.cpu0.commit.committedInstType_0::SimdDiv            0      0.00%     69.53% # Class of committed instruction (Count)
system.cpu0.commit.committedInstType_0::SimdSqrt            0      0.00%     69.53% # Class of committed instruction (Count)
system.cpu0.commit.committedInstType_0::SimdFloatAdd      2616341      5.41%     74.94% # Class of committed instruction (Count)
system.cpu0.commit.committedInstType_0::SimdFloatAlu            0      0.00%     74.94% # Class of committed instruction (Count)
system.cpu0.commit.committedInstType_0::SimdFloatCmp            0      0.00%     74.94% # Class of committed instruction (Count)
system.cpu0.commit.committedInstType_0::SimdFloatCvt       282900      0.58%     75.53% # Class of committed instruction (Count)
system.cpu0.commit.committedInstType_0::SimdFloatDiv        65794      0.14%     75.66% # Class of committed instruction (Count)
system.cpu0.commit.committedInstType_0::SimdFloatMisc            0      0.00%     75.66% # Class of committed instruction (Count)
system.cpu0.commit.committedInstType_0::SimdFloatMult      2276493      4.71%     80.37% # Class of committed instruction (Count)
system.cpu0.commit.committedInstType_0::SimdFloatMultAcc            0      0.00%     80.37% # Class of committed instruction (Count)
system.cpu0.commit.committedInstType_0::SimdFloatSqrt            0      0.00%     80.37% # Class of committed instruction (Count)
system.cpu0.commit.committedInstType_0::SimdReduceAdd            0      0.00%     80.37% # Class of committed instruction (Count)
system.cpu0.commit.committedInstType_0::SimdReduceAlu            0      0.00%     80.37% # Class of committed instruction (Count)
system.cpu0.commit.committedInstType_0::SimdReduceCmp            0      0.00%     80.37% # Class of committed instruction (Count)
system.cpu0.commit.committedInstType_0::SimdFloatReduceAdd            0      0.00%     80.37% # Class of committed instruction (Count)
system.cpu0.commit.committedInstType_0::SimdFloatReduceCmp            0      0.00%     80.37% # Class of committed instruction (Count)
system.cpu0.commit.committedInstType_0::SimdAes            0      0.00%     80.37% # Class of committed instruction (Count)
system.cpu0.commit.committedInstType_0::SimdAesMix            0      0.00%     80.37% # Class of committed instruction (Count)
system.cpu0.commit.committedInstType_0::SimdSha1Hash            0      0.00%     80.37% # Class of committed instruction (Count)
system.cpu0.commit.committedInstType_0::SimdSha1Hash2            0      0.00%     80.37% # Class of committed instruction (Count)
system.cpu0.commit.committedInstType_0::SimdSha256Hash            0      0.00%     80.37% # Class of committed instruction (Count)
system.cpu0.commit.committedInstType_0::SimdSha256Hash2            0      0.00%     80.37% # Class of committed instruction (Count)
system.cpu0.commit.committedInstType_0::SimdShaSigma2            0      0.00%     80.37% # Class of committed instruction (Count)
system.cpu0.commit.committedInstType_0::SimdShaSigma3            0      0.00%     80.37% # Class of committed instruction (Count)
system.cpu0.commit.committedInstType_0::SimdPredAlu            0      0.00%     80.37% # Class of committed instruction (Count)
system.cpu0.commit.committedInstType_0::MemRead      3157181      6.53%     86.89% # Class of committed instruction (Count)
system.cpu0.commit.committedInstType_0::MemWrite      1601685      3.31%     90.20% # Class of committed instruction (Count)
system.cpu0.commit.committedInstType_0::FloatMemRead      3224640      6.67%     96.87% # Class of committed instruction (Count)
system.cpu0.commit.committedInstType_0::FloatMemWrite      1514198      3.13%    100.00% # Class of committed instruction (Count)
system.cpu0.commit.committedInstType_0::IprAccess            0      0.00%    100.00% # Class of committed instruction (Count)
system.cpu0.commit.committedInstType_0::InstPrefetch            0      0.00%    100.00% # Class of committed instruction (Count)
system.cpu0.commit.committedInstType_0::total     48379840                       # Class of committed instruction (Count)
system.cpu0.commit.commitEligibleSamples      3649670                       # number cycles where commit BW limit reached (Cycle)
system.cpu0.dcache.demandHits::cpu0.data      7102510                       # number of demand (read+write) hits (Count)
system.cpu0.dcache.demandHits::total          7102510                       # number of demand (read+write) hits (Count)
system.cpu0.dcache.overallHits::cpu0.data      7102510                       # number of overall hits (Count)
system.cpu0.dcache.overallHits::total         7102510                       # number of overall hits (Count)
system.cpu0.dcache.demandMisses::cpu0.data       190064                       # number of demand (read+write) misses (Count)
system.cpu0.dcache.demandMisses::total         190064                       # number of demand (read+write) misses (Count)
system.cpu0.dcache.overallMisses::cpu0.data       190064                       # number of overall misses (Count)
system.cpu0.dcache.overallMisses::total        190064                       # number of overall misses (Count)
system.cpu0.dcache.demandMissLatency::cpu0.data   5933725662                       # number of demand (read+write) miss ticks (Tick)
system.cpu0.dcache.demandMissLatency::total   5933725662                       # number of demand (read+write) miss ticks (Tick)
system.cpu0.dcache.overallMissLatency::cpu0.data   5933725662                       # number of overall miss ticks (Tick)
system.cpu0.dcache.overallMissLatency::total   5933725662                       # number of overall miss ticks (Tick)
system.cpu0.dcache.demandAccesses::cpu0.data      7292574                       # number of demand (read+write) accesses (Count)
system.cpu0.dcache.demandAccesses::total      7292574                       # number of demand (read+write) accesses (Count)
system.cpu0.dcache.overallAccesses::cpu0.data      7292574                       # number of overall (read+write) accesses (Count)
system.cpu0.dcache.overallAccesses::total      7292574                       # number of overall (read+write) accesses (Count)
system.cpu0.dcache.demandMissRate::cpu0.data     0.026063                       # miss rate for demand accesses (Ratio)
system.cpu0.dcache.demandMissRate::total     0.026063                       # miss rate for demand accesses (Ratio)
system.cpu0.dcache.overallMissRate::cpu0.data     0.026063                       # miss rate for overall accesses (Ratio)
system.cpu0.dcache.overallMissRate::total     0.026063                       # miss rate for overall accesses (Ratio)
system.cpu0.dcache.demandAvgMissLatency::cpu0.data 31219.618981                       # average overall miss latency in ticks ((Tick/Count))
system.cpu0.dcache.demandAvgMissLatency::total 31219.618981                       # average overall miss latency in ticks ((Tick/Count))
system.cpu0.dcache.overallAvgMissLatency::cpu0.data 31219.618981                       # average overall miss latency ((Tick/Count))
system.cpu0.dcache.overallAvgMissLatency::total 31219.618981                       # average overall miss latency ((Tick/Count))
system.cpu0.dcache.blockedCycles::no_mshrs        62554                       # number of cycles access was blocked (Cycle)
system.cpu0.dcache.blockedCycles::no_targets           54                       # number of cycles access was blocked (Cycle)
system.cpu0.dcache.blockedCauses::no_mshrs         3880                       # number of times access was blocked (Count)
system.cpu0.dcache.blockedCauses::no_targets            3                       # number of times access was blocked (Count)
system.cpu0.dcache.avgBlocked::no_mshrs     16.122165                       # average number of cycles each access was blocked ((Cycle/Count))
system.cpu0.dcache.avgBlocked::no_targets           18                       # average number of cycles each access was blocked ((Cycle/Count))
system.cpu0.dcache.writebacks::writebacks        63472                       # number of writebacks (Count)
system.cpu0.dcache.writebacks::total            63472                       # number of writebacks (Count)
system.cpu0.dcache.demandMshrHits::cpu0.data       114325                       # number of demand (read+write) MSHR hits (Count)
system.cpu0.dcache.demandMshrHits::total       114325                       # number of demand (read+write) MSHR hits (Count)
system.cpu0.dcache.overallMshrHits::cpu0.data       114325                       # number of overall MSHR hits (Count)
system.cpu0.dcache.overallMshrHits::total       114325                       # number of overall MSHR hits (Count)
system.cpu0.dcache.demandMshrMisses::cpu0.data        75739                       # number of demand (read+write) MSHR misses (Count)
system.cpu0.dcache.demandMshrMisses::total        75739                       # number of demand (read+write) MSHR misses (Count)
system.cpu0.dcache.overallMshrMisses::cpu0.data        75739                       # number of overall MSHR misses (Count)
system.cpu0.dcache.overallMshrMisses::total        75739                       # number of overall MSHR misses (Count)
system.cpu0.dcache.demandMshrMissLatency::cpu0.data   3993864132                       # number of demand (read+write) MSHR miss ticks (Tick)
system.cpu0.dcache.demandMshrMissLatency::total   3993864132                       # number of demand (read+write) MSHR miss ticks (Tick)
system.cpu0.dcache.overallMshrMissLatency::cpu0.data   3993864132                       # number of overall MSHR miss ticks (Tick)
system.cpu0.dcache.overallMshrMissLatency::total   3993864132                       # number of overall MSHR miss ticks (Tick)
system.cpu0.dcache.demandMshrMissRate::cpu0.data     0.010386                       # mshr miss ratio for demand accesses (Ratio)
system.cpu0.dcache.demandMshrMissRate::total     0.010386                       # mshr miss ratio for demand accesses (Ratio)
system.cpu0.dcache.overallMshrMissRate::cpu0.data     0.010386                       # mshr miss ratio for overall accesses (Ratio)
system.cpu0.dcache.overallMshrMissRate::total     0.010386                       # mshr miss ratio for overall accesses (Ratio)
system.cpu0.dcache.demandAvgMshrMissLatency::cpu0.data 52731.936413                       # average overall mshr miss latency ((Tick/Count))
system.cpu0.dcache.demandAvgMshrMissLatency::total 52731.936413                       # average overall mshr miss latency ((Tick/Count))
system.cpu0.dcache.overallAvgMshrMissLatency::cpu0.data 52731.936413                       # average overall mshr miss latency ((Tick/Count))
system.cpu0.dcache.overallAvgMshrMissLatency::total 52731.936413                       # average overall mshr miss latency ((Tick/Count))
system.cpu0.dcache.replacements                 75093                       # number of replacements (Count)
system.cpu0.dcache.LockedRMWReadReq.hits::cpu0.data          217                       # number of LockedRMWReadReq hits (Count)
system.cpu0.dcache.LockedRMWReadReq.hits::total          217                       # number of LockedRMWReadReq hits (Count)
system.cpu0.dcache.LockedRMWReadReq.misses::cpu0.data           64                       # number of LockedRMWReadReq misses (Count)
system.cpu0.dcache.LockedRMWReadReq.misses::total           64                       # number of LockedRMWReadReq misses (Count)
system.cpu0.dcache.LockedRMWReadReq.missLatency::cpu0.data      1664667                       # number of LockedRMWReadReq miss ticks (Tick)
system.cpu0.dcache.LockedRMWReadReq.missLatency::total      1664667                       # number of LockedRMWReadReq miss ticks (Tick)
system.cpu0.dcache.LockedRMWReadReq.accesses::cpu0.data          281                       # number of LockedRMWReadReq accesses(hits+misses) (Count)
system.cpu0.dcache.LockedRMWReadReq.accesses::total          281                       # number of LockedRMWReadReq accesses(hits+misses) (Count)
system.cpu0.dcache.LockedRMWReadReq.missRate::cpu0.data     0.227758                       # miss rate for LockedRMWReadReq accesses (Ratio)
system.cpu0.dcache.LockedRMWReadReq.missRate::total     0.227758                       # miss rate for LockedRMWReadReq accesses (Ratio)
system.cpu0.dcache.LockedRMWReadReq.avgMissLatency::cpu0.data 26010.421875                       # average LockedRMWReadReq miss latency ((Tick/Count))
system.cpu0.dcache.LockedRMWReadReq.avgMissLatency::total 26010.421875                       # average LockedRMWReadReq miss latency ((Tick/Count))
system.cpu0.dcache.LockedRMWReadReq.mshrMisses::cpu0.data           64                       # number of LockedRMWReadReq MSHR misses (Count)
system.cpu0.dcache.LockedRMWReadReq.mshrMisses::total           64                       # number of LockedRMWReadReq MSHR misses (Count)
system.cpu0.dcache.LockedRMWReadReq.mshrMissLatency::cpu0.data      4064598                       # number of LockedRMWReadReq MSHR miss ticks (Tick)
system.cpu0.dcache.LockedRMWReadReq.mshrMissLatency::total      4064598                       # number of LockedRMWReadReq MSHR miss ticks (Tick)
system.cpu0.dcache.LockedRMWReadReq.mshrMissRate::cpu0.data     0.227758                       # mshr miss rate for LockedRMWReadReq accesses (Ratio)
system.cpu0.dcache.LockedRMWReadReq.mshrMissRate::total     0.227758                       # mshr miss rate for LockedRMWReadReq accesses (Ratio)
system.cpu0.dcache.LockedRMWReadReq.avgMshrMissLatency::cpu0.data 63509.343750                       # average LockedRMWReadReq mshr miss latency ((Tick/Count))
system.cpu0.dcache.LockedRMWReadReq.avgMshrMissLatency::total 63509.343750                       # average LockedRMWReadReq mshr miss latency ((Tick/Count))
system.cpu0.dcache.LockedRMWWriteReq.hits::cpu0.data          281                       # number of LockedRMWWriteReq hits (Count)
system.cpu0.dcache.LockedRMWWriteReq.hits::total          281                       # number of LockedRMWWriteReq hits (Count)
system.cpu0.dcache.LockedRMWWriteReq.accesses::cpu0.data          281                       # number of LockedRMWWriteReq accesses(hits+misses) (Count)
system.cpu0.dcache.LockedRMWWriteReq.accesses::total          281                       # number of LockedRMWWriteReq accesses(hits+misses) (Count)
system.cpu0.dcache.ReadReq.hits::cpu0.data      4033099                       # number of ReadReq hits (Count)
system.cpu0.dcache.ReadReq.hits::total        4033099                       # number of ReadReq hits (Count)
system.cpu0.dcache.ReadReq.misses::cpu0.data       143860                       # number of ReadReq misses (Count)
system.cpu0.dcache.ReadReq.misses::total       143860                       # number of ReadReq misses (Count)
system.cpu0.dcache.ReadReq.missLatency::cpu0.data   2467230633                       # number of ReadReq miss ticks (Tick)
system.cpu0.dcache.ReadReq.missLatency::total   2467230633                       # number of ReadReq miss ticks (Tick)
system.cpu0.dcache.ReadReq.accesses::cpu0.data      4176959                       # number of ReadReq accesses(hits+misses) (Count)
system.cpu0.dcache.ReadReq.accesses::total      4176959                       # number of ReadReq accesses(hits+misses) (Count)
system.cpu0.dcache.ReadReq.missRate::cpu0.data     0.034441                       # miss rate for ReadReq accesses (Ratio)
system.cpu0.dcache.ReadReq.missRate::total     0.034441                       # miss rate for ReadReq accesses (Ratio)
system.cpu0.dcache.ReadReq.avgMissLatency::cpu0.data 17150.219887                       # average ReadReq miss latency ((Tick/Count))
system.cpu0.dcache.ReadReq.avgMissLatency::total 17150.219887                       # average ReadReq miss latency ((Tick/Count))
system.cpu0.dcache.ReadReq.mshrHits::cpu0.data       114318                       # number of ReadReq MSHR hits (Count)
system.cpu0.dcache.ReadReq.mshrHits::total       114318                       # number of ReadReq MSHR hits (Count)
system.cpu0.dcache.ReadReq.mshrMisses::cpu0.data        29542                       # number of ReadReq MSHR misses (Count)
system.cpu0.dcache.ReadReq.mshrMisses::total        29542                       # number of ReadReq MSHR misses (Count)
system.cpu0.dcache.ReadReq.mshrMissLatency::cpu0.data    558502605                       # number of ReadReq MSHR miss ticks (Tick)
system.cpu0.dcache.ReadReq.mshrMissLatency::total    558502605                       # number of ReadReq MSHR miss ticks (Tick)
system.cpu0.dcache.ReadReq.mshrMissRate::cpu0.data     0.007073                       # mshr miss rate for ReadReq accesses (Ratio)
system.cpu0.dcache.ReadReq.mshrMissRate::total     0.007073                       # mshr miss rate for ReadReq accesses (Ratio)
system.cpu0.dcache.ReadReq.avgMshrMissLatency::cpu0.data 18905.375567                       # average ReadReq mshr miss latency ((Tick/Count))
system.cpu0.dcache.ReadReq.avgMshrMissLatency::total 18905.375567                       # average ReadReq mshr miss latency ((Tick/Count))
system.cpu0.dcache.WriteReq.hits::cpu0.data      3069411                       # number of WriteReq hits (Count)
system.cpu0.dcache.WriteReq.hits::total       3069411                       # number of WriteReq hits (Count)
system.cpu0.dcache.WriteReq.misses::cpu0.data        46204                       # number of WriteReq misses (Count)
system.cpu0.dcache.WriteReq.misses::total        46204                       # number of WriteReq misses (Count)
system.cpu0.dcache.WriteReq.missLatency::cpu0.data   3466495029                       # number of WriteReq miss ticks (Tick)
system.cpu0.dcache.WriteReq.missLatency::total   3466495029                       # number of WriteReq miss ticks (Tick)
system.cpu0.dcache.WriteReq.accesses::cpu0.data      3115615                       # number of WriteReq accesses(hits+misses) (Count)
system.cpu0.dcache.WriteReq.accesses::total      3115615                       # number of WriteReq accesses(hits+misses) (Count)
system.cpu0.dcache.WriteReq.missRate::cpu0.data     0.014830                       # miss rate for WriteReq accesses (Ratio)
system.cpu0.dcache.WriteReq.missRate::total     0.014830                       # miss rate for WriteReq accesses (Ratio)
system.cpu0.dcache.WriteReq.avgMissLatency::cpu0.data 75025.864189                       # average WriteReq miss latency ((Tick/Count))
system.cpu0.dcache.WriteReq.avgMissLatency::total 75025.864189                       # average WriteReq miss latency ((Tick/Count))
system.cpu0.dcache.WriteReq.mshrHits::cpu0.data            7                       # number of WriteReq MSHR hits (Count)
system.cpu0.dcache.WriteReq.mshrHits::total            7                       # number of WriteReq MSHR hits (Count)
system.cpu0.dcache.WriteReq.mshrMisses::cpu0.data        46197                       # number of WriteReq MSHR misses (Count)
system.cpu0.dcache.WriteReq.mshrMisses::total        46197                       # number of WriteReq MSHR misses (Count)
system.cpu0.dcache.WriteReq.mshrMissLatency::cpu0.data   3435361527                       # number of WriteReq MSHR miss ticks (Tick)
system.cpu0.dcache.WriteReq.mshrMissLatency::total   3435361527                       # number of WriteReq MSHR miss ticks (Tick)
system.cpu0.dcache.WriteReq.mshrMissRate::cpu0.data     0.014828                       # mshr miss rate for WriteReq accesses (Ratio)
system.cpu0.dcache.WriteReq.mshrMissRate::total     0.014828                       # mshr miss rate for WriteReq accesses (Ratio)
system.cpu0.dcache.WriteReq.avgMshrMissLatency::cpu0.data 74363.303396                       # average WriteReq mshr miss latency ((Tick/Count))
system.cpu0.dcache.WriteReq.avgMshrMissLatency::total 74363.303396                       # average WriteReq mshr miss latency ((Tick/Count))
system.cpu0.dcache.power_state.pwrStateResidencyTicks::UNDEFINED   6605981073                       # Cumulative time (in ticks) in various power states (Tick)
system.cpu0.dcache.tags.tagsInUse          509.602988                       # Average ticks per tags in use ((Tick/Count))
system.cpu0.dcache.tags.totalRefs             7178837                       # Total number of references to valid blocks. (Count)
system.cpu0.dcache.tags.sampledRefs             75713                       # Sample count of references to valid blocks. (Count)
system.cpu0.dcache.tags.avgRefs             94.816438                       # Average number of references to valid blocks. ((Count/Count))
system.cpu0.dcache.tags.warmupTick             189144                       # The tick when the warmup percentage was hit. (Tick)
system.cpu0.dcache.tags.occupancies::cpu0.data   509.602988                       # Average occupied blocks per tick, per requestor ((Count/Tick))
system.cpu0.dcache.tags.avgOccs::cpu0.data     0.995318                       # Average percentage of cache occupancy ((Ratio/Tick))
system.cpu0.dcache.tags.avgOccs::total       0.995318                       # Average percentage of cache occupancy ((Ratio/Tick))
system.cpu0.dcache.tags.occupanciesTaskId::1024          512                       # Occupied blocks per task id (Count)
system.cpu0.dcache.tags.ageTaskId_1024::0           90                       # Occupied blocks per task id, per block age (Count)
system.cpu0.dcache.tags.ageTaskId_1024::1          422                       # Occupied blocks per task id, per block age (Count)
system.cpu0.dcache.tags.ratioOccsTaskId::1024            1                       # Ratio of occupied blocks and all blocks, per task id (Ratio)
system.cpu0.dcache.tags.tagAccesses          58420801                       # Number of tag accesses (Count)
system.cpu0.dcache.tags.dataAccesses         58420801                       # Number of data accesses (Count)
system.cpu0.dcache.tags.power_state.pwrStateResidencyTicks::UNDEFINED   6605981073                       # Cumulative time (in ticks) in various power states (Tick)
system.cpu0.decode.idleCycles                 3801726                       # Number of cycles decode is idle (Cycle)
system.cpu0.decode.blockedCycles              8022852                       # Number of cycles decode is blocked (Cycle)
system.cpu0.decode.runCycles                  7404249                       # Number of cycles decode is running (Cycle)
system.cpu0.decode.unblockCycles               195632                       # Number of cycles decode is unblocking (Cycle)
system.cpu0.decode.squashCycles                 19712                       # Number of cycles decode is squashing (Cycle)
system.cpu0.decode.branchResolved             1419380                       # Number of times decode resolved a branch (Count)
system.cpu0.decode.branchMispred                  961                       # Number of times decode detected a branch misprediction (Count)
system.cpu0.decode.decodedInsts              49366179                       # Number of instructions handled by decode (Count)
system.cpu0.decode.squashedInsts                 4673                       # Number of squashed instructions handled by decode (Count)
system.cpu0.dtb_walker_cache.blockedCycles::no_mshrs            0                       # number of cycles access was blocked (Cycle)
system.cpu0.dtb_walker_cache.blockedCycles::no_targets            0                       # number of cycles access was blocked (Cycle)
system.cpu0.dtb_walker_cache.blockedCauses::no_mshrs            0                       # number of times access was blocked (Count)
system.cpu0.dtb_walker_cache.blockedCauses::no_targets            0                       # number of times access was blocked (Count)
system.cpu0.dtb_walker_cache.avgBlocked::no_mshrs          nan                       # average number of cycles each access was blocked ((Cycle/Count))
system.cpu0.dtb_walker_cache.avgBlocked::no_targets          nan                       # average number of cycles each access was blocked ((Cycle/Count))
system.cpu0.dtb_walker_cache.replacements            0                       # number of replacements (Count)
system.cpu0.dtb_walker_cache.power_state.pwrStateResidencyTicks::UNDEFINED   6605981073                       # Cumulative time (in ticks) in various power states (Tick)
system.cpu0.dtb_walker_cache.tags.tagsInUse            0                       # Average ticks per tags in use ((Tick/Count))
system.cpu0.dtb_walker_cache.tags.totalRefs            0                       # Total number of references to valid blocks. (Count)
system.cpu0.dtb_walker_cache.tags.sampledRefs            0                       # Sample count of references to valid blocks. (Count)
system.cpu0.dtb_walker_cache.tags.avgRefs          nan                       # Average number of references to valid blocks. ((Count/Count))
system.cpu0.dtb_walker_cache.tags.warmupTick            0                       # The tick when the warmup percentage was hit. (Tick)
system.cpu0.dtb_walker_cache.tags.tagAccesses            0                       # Number of tag accesses (Count)
system.cpu0.dtb_walker_cache.tags.dataAccesses            0                       # Number of data accesses (Count)
system.cpu0.dtb_walker_cache.tags.power_state.pwrStateResidencyTicks::UNDEFINED   6605981073                       # Cumulative time (in ticks) in various power states (Tick)
system.cpu0.fetch.icacheStallCycles           3662688                       # Number of cycles fetch is stalled on an Icache miss (Cycle)
system.cpu0.fetch.insts                      28993355                       # Number of instructions fetch has processed (Count)
system.cpu0.fetch.branches                    3102042                       # Number of branches that fetch encountered (Count)
system.cpu0.fetch.predictedBranches           2088996                       # Number of branches that fetch has predicted taken (Count)
system.cpu0.fetch.cycles                     15755227                       # Number of cycles fetch has run and was not squashing or blocked (Cycle)
system.cpu0.fetch.squashCycles                  41320                       # Number of cycles fetch has spent squashing (Cycle)
system.cpu0.fetch.miscStallCycles                 700                       # Number of cycles fetch has spent waiting on interrupts, or bad addresses, or out of MSHRs (Cycle)
system.cpu0.fetch.pendingTrapStallCycles         4849                       # Number of stall cycles due to pending traps (Cycle)
system.cpu0.fetch.icacheWaitRetryStallCycles           47                       # Number of stall cycles due to full MSHR (Cycle)
system.cpu0.fetch.cacheLines                  3573449                       # Number of cache lines fetched (Count)
system.cpu0.fetch.icacheSquashes                 4255                       # Number of outstanding Icache misses that were squashed (Count)
system.cpu0.fetch.nisnDist::samples          19444171                       # Number of instructions fetched each cycle (Total) (Count)
system.cpu0.fetch.nisnDist::mean             2.548000                       # Number of instructions fetched each cycle (Total) (Count)
system.cpu0.fetch.nisnDist::stdev            3.446911                       # Number of instructions fetched each cycle (Total) (Count)
system.cpu0.fetch.nisnDist::underflows              0      0.00%      0.00% # Number of instructions fetched each cycle (Total) (Count)
system.cpu0.fetch.nisnDist::0                11646508     59.90%     59.90% # Number of instructions fetched each cycle (Total) (Count)
system.cpu0.fetch.nisnDist::1                  578868      2.98%     62.87% # Number of instructions fetched each cycle (Total) (Count)
system.cpu0.fetch.nisnDist::2                  254246      1.31%     64.18% # Number of instructions fetched each cycle (Total) (Count)
system.cpu0.fetch.nisnDist::3                  399849      2.06%     66.24% # Number of instructions fetched each cycle (Total) (Count)
system.cpu0.fetch.nisnDist::4                  542395      2.79%     69.03% # Number of instructions fetched each cycle (Total) (Count)
system.cpu0.fetch.nisnDist::5                  597150      3.07%     72.10% # Number of instructions fetched each cycle (Total) (Count)
system.cpu0.fetch.nisnDist::6                  371011      1.91%     74.01% # Number of instructions fetched each cycle (Total) (Count)
system.cpu0.fetch.nisnDist::7                  557715      2.87%     76.88% # Number of instructions fetched each cycle (Total) (Count)
system.cpu0.fetch.nisnDist::8                 4496429     23.12%    100.00% # Number of instructions fetched each cycle (Total) (Count)
system.cpu0.fetch.nisnDist::overflows               0      0.00%    100.00% # Number of instructions fetched each cycle (Total) (Count)
system.cpu0.fetch.nisnDist::min_value               0                       # Number of instructions fetched each cycle (Total) (Count)
system.cpu0.fetch.nisnDist::max_value               8                       # Number of instructions fetched each cycle (Total) (Count)
system.cpu0.fetch.nisnDist::total            19444171                       # Number of instructions fetched each cycle (Total) (Count)
system.cpu0.fetch.branchRate                 0.157566                       # Number of branch fetches per cycle (Ratio)
system.cpu0.fetch.rate                       1.472695                       # Number of inst fetches per cycle ((Count/Cycle))
system.cpu0.icache.demandHits::cpu0.inst      3570806                       # number of demand (read+write) hits (Count)
system.cpu0.icache.demandHits::total          3570806                       # number of demand (read+write) hits (Count)
system.cpu0.icache.overallHits::cpu0.inst      3570806                       # number of overall hits (Count)
system.cpu0.icache.overallHits::total         3570806                       # number of overall hits (Count)
system.cpu0.icache.demandMisses::cpu0.inst         2643                       # number of demand (read+write) misses (Count)
system.cpu0.icache.demandMisses::total           2643                       # number of demand (read+write) misses (Count)
system.cpu0.icache.overallMisses::cpu0.inst         2643                       # number of overall misses (Count)
system.cpu0.icache.overallMisses::total          2643                       # number of overall misses (Count)
system.cpu0.icache.demandMissLatency::cpu0.inst    203423705                       # number of demand (read+write) miss ticks (Tick)
system.cpu0.icache.demandMissLatency::total    203423705                       # number of demand (read+write) miss ticks (Tick)
system.cpu0.icache.overallMissLatency::cpu0.inst    203423705                       # number of overall miss ticks (Tick)
system.cpu0.icache.overallMissLatency::total    203423705                       # number of overall miss ticks (Tick)
system.cpu0.icache.demandAccesses::cpu0.inst      3573449                       # number of demand (read+write) accesses (Count)
system.cpu0.icache.demandAccesses::total      3573449                       # number of demand (read+write) accesses (Count)
system.cpu0.icache.overallAccesses::cpu0.inst      3573449                       # number of overall (read+write) accesses (Count)
system.cpu0.icache.overallAccesses::total      3573449                       # number of overall (read+write) accesses (Count)
system.cpu0.icache.demandMissRate::cpu0.inst     0.000740                       # miss rate for demand accesses (Ratio)
system.cpu0.icache.demandMissRate::total     0.000740                       # miss rate for demand accesses (Ratio)
system.cpu0.icache.overallMissRate::cpu0.inst     0.000740                       # miss rate for overall accesses (Ratio)
system.cpu0.icache.overallMissRate::total     0.000740                       # miss rate for overall accesses (Ratio)
system.cpu0.icache.demandAvgMissLatency::cpu0.inst 76966.971245                       # average overall miss latency in ticks ((Tick/Count))
system.cpu0.icache.demandAvgMissLatency::total 76966.971245                       # average overall miss latency in ticks ((Tick/Count))
system.cpu0.icache.overallAvgMissLatency::cpu0.inst 76966.971245                       # average overall miss latency ((Tick/Count))
system.cpu0.icache.overallAvgMissLatency::total 76966.971245                       # average overall miss latency ((Tick/Count))
system.cpu0.icache.blockedCycles::no_mshrs         1588                       # number of cycles access was blocked (Cycle)
system.cpu0.icache.blockedCycles::no_targets            0                       # number of cycles access was blocked (Cycle)
system.cpu0.icache.blockedCauses::no_mshrs           12                       # number of times access was blocked (Count)
system.cpu0.icache.blockedCauses::no_targets            0                       # number of times access was blocked (Count)
system.cpu0.icache.avgBlocked::no_mshrs    132.333333                       # average number of cycles each access was blocked ((Cycle/Count))
system.cpu0.icache.avgBlocked::no_targets          nan                       # average number of cycles each access was blocked ((Cycle/Count))
system.cpu0.icache.writebacks::writebacks         1493                       # number of writebacks (Count)
system.cpu0.icache.writebacks::total             1493                       # number of writebacks (Count)
system.cpu0.icache.demandMshrHits::cpu0.inst          637                       # number of demand (read+write) MSHR hits (Count)
system.cpu0.icache.demandMshrHits::total          637                       # number of demand (read+write) MSHR hits (Count)
system.cpu0.icache.overallMshrHits::cpu0.inst          637                       # number of overall MSHR hits (Count)
system.cpu0.icache.overallMshrHits::total          637                       # number of overall MSHR hits (Count)
system.cpu0.icache.demandMshrMisses::cpu0.inst         2006                       # number of demand (read+write) MSHR misses (Count)
system.cpu0.icache.demandMshrMisses::total         2006                       # number of demand (read+write) MSHR misses (Count)
system.cpu0.icache.overallMshrMisses::cpu0.inst         2006                       # number of overall MSHR misses (Count)
system.cpu0.icache.overallMshrMisses::total         2006                       # number of overall MSHR misses (Count)
system.cpu0.icache.demandMshrMissLatency::cpu0.inst    158425082                       # number of demand (read+write) MSHR miss ticks (Tick)
system.cpu0.icache.demandMshrMissLatency::total    158425082                       # number of demand (read+write) MSHR miss ticks (Tick)
system.cpu0.icache.overallMshrMissLatency::cpu0.inst    158425082                       # number of overall MSHR miss ticks (Tick)
system.cpu0.icache.overallMshrMissLatency::total    158425082                       # number of overall MSHR miss ticks (Tick)
system.cpu0.icache.demandMshrMissRate::cpu0.inst     0.000561                       # mshr miss ratio for demand accesses (Ratio)
system.cpu0.icache.demandMshrMissRate::total     0.000561                       # mshr miss ratio for demand accesses (Ratio)
system.cpu0.icache.overallMshrMissRate::cpu0.inst     0.000561                       # mshr miss ratio for overall accesses (Ratio)
system.cpu0.icache.overallMshrMissRate::total     0.000561                       # mshr miss ratio for overall accesses (Ratio)
system.cpu0.icache.demandAvgMshrMissLatency::cpu0.inst 78975.614158                       # average overall mshr miss latency ((Tick/Count))
system.cpu0.icache.demandAvgMshrMissLatency::total 78975.614158                       # average overall mshr miss latency ((Tick/Count))
system.cpu0.icache.overallAvgMshrMissLatency::cpu0.inst 78975.614158                       # average overall mshr miss latency ((Tick/Count))
system.cpu0.icache.overallAvgMshrMissLatency::total 78975.614158                       # average overall mshr miss latency ((Tick/Count))
system.cpu0.icache.replacements                  1493                       # number of replacements (Count)
system.cpu0.icache.ReadReq.hits::cpu0.inst      3570806                       # number of ReadReq hits (Count)
system.cpu0.icache.ReadReq.hits::total        3570806                       # number of ReadReq hits (Count)
system.cpu0.icache.ReadReq.misses::cpu0.inst         2643                       # number of ReadReq misses (Count)
system.cpu0.icache.ReadReq.misses::total         2643                       # number of ReadReq misses (Count)
system.cpu0.icache.ReadReq.missLatency::cpu0.inst    203423705                       # number of ReadReq miss ticks (Tick)
system.cpu0.icache.ReadReq.missLatency::total    203423705                       # number of ReadReq miss ticks (Tick)
system.cpu0.icache.ReadReq.accesses::cpu0.inst      3573449                       # number of ReadReq accesses(hits+misses) (Count)
system.cpu0.icache.ReadReq.accesses::total      3573449                       # number of ReadReq accesses(hits+misses) (Count)
system.cpu0.icache.ReadReq.missRate::cpu0.inst     0.000740                       # miss rate for ReadReq accesses (Ratio)
system.cpu0.icache.ReadReq.missRate::total     0.000740                       # miss rate for ReadReq accesses (Ratio)
system.cpu0.icache.ReadReq.avgMissLatency::cpu0.inst 76966.971245                       # average ReadReq miss latency ((Tick/Count))
system.cpu0.icache.ReadReq.avgMissLatency::total 76966.971245                       # average ReadReq miss latency ((Tick/Count))
system.cpu0.icache.ReadReq.mshrHits::cpu0.inst          637                       # number of ReadReq MSHR hits (Count)
system.cpu0.icache.ReadReq.mshrHits::total          637                       # number of ReadReq MSHR hits (Count)
system.cpu0.icache.ReadReq.mshrMisses::cpu0.inst         2006                       # number of ReadReq MSHR misses (Count)
system.cpu0.icache.ReadReq.mshrMisses::total         2006                       # number of ReadReq MSHR misses (Count)
system.cpu0.icache.ReadReq.mshrMissLatency::cpu0.inst    158425082                       # number of ReadReq MSHR miss ticks (Tick)
system.cpu0.icache.ReadReq.mshrMissLatency::total    158425082                       # number of ReadReq MSHR miss ticks (Tick)
system.cpu0.icache.ReadReq.mshrMissRate::cpu0.inst     0.000561                       # mshr miss rate for ReadReq accesses (Ratio)
system.cpu0.icache.ReadReq.mshrMissRate::total     0.000561                       # mshr miss rate for ReadReq accesses (Ratio)
system.cpu0.icache.ReadReq.avgMshrMissLatency::cpu0.inst 78975.614158                       # average ReadReq mshr miss latency ((Tick/Count))
system.cpu0.icache.ReadReq.avgMshrMissLatency::total 78975.614158                       # average ReadReq mshr miss latency ((Tick/Count))
system.cpu0.icache.power_state.pwrStateResidencyTicks::UNDEFINED   6605981073                       # Cumulative time (in ticks) in various power states (Tick)
system.cpu0.icache.tags.tagsInUse          510.209363                       # Average ticks per tags in use ((Tick/Count))
system.cpu0.icache.tags.totalRefs             3572811                       # Total number of references to valid blocks. (Count)
system.cpu0.icache.tags.sampledRefs              2005                       # Sample count of references to valid blocks. (Count)
system.cpu0.icache.tags.avgRefs           1781.950623                       # Average number of references to valid blocks. ((Count/Count))
system.cpu0.icache.tags.warmupTick              92241                       # The tick when the warmup percentage was hit. (Tick)
system.cpu0.icache.tags.occupancies::cpu0.inst   510.209363                       # Average occupied blocks per tick, per requestor ((Count/Tick))
system.cpu0.icache.tags.avgOccs::cpu0.inst     0.996503                       # Average percentage of cache occupancy ((Ratio/Tick))
system.cpu0.icache.tags.avgOccs::total       0.996503                       # Average percentage of cache occupancy ((Ratio/Tick))
system.cpu0.icache.tags.occupanciesTaskId::1024          512                       # Occupied blocks per task id (Count)
system.cpu0.icache.tags.ageTaskId_1024::0          126                       # Occupied blocks per task id, per block age (Count)
system.cpu0.icache.tags.ageTaskId_1024::1          109                       # Occupied blocks per task id, per block age (Count)
system.cpu0.icache.tags.ageTaskId_1024::2           13                       # Occupied blocks per task id, per block age (Count)
system.cpu0.icache.tags.ageTaskId_1024::3          264                       # Occupied blocks per task id, per block age (Count)
system.cpu0.icache.tags.ratioOccsTaskId::1024            1                       # Ratio of occupied blocks and all blocks, per task id (Ratio)
system.cpu0.icache.tags.tagAccesses          28589597                       # Number of tag accesses (Count)
system.cpu0.icache.tags.dataAccesses         28589597                       # Number of data accesses (Count)
system.cpu0.icache.tags.power_state.pwrStateResidencyTicks::UNDEFINED   6605981073                       # Cumulative time (in ticks) in various power states (Tick)
system.cpu0.iew.idleCycles                          0                       # Number of cycles IEW is idle (Cycle)
system.cpu0.iew.squashCycles                    19712                       # Number of cycles IEW is squashing (Cycle)
system.cpu0.iew.blockCycles                    292872                       # Number of cycles IEW is blocking (Cycle)
system.cpu0.iew.unblockCycles                  121187                       # Number of cycles IEW is unblocking (Cycle)
system.cpu0.iew.dispatchedInsts              49116350                       # Number of instructions dispatched to IQ (Count)
system.cpu0.iew.dispSquashedInsts                3443                       # Number of squashed instructions skipped by dispatch (Count)
system.cpu0.iew.dispLoadInsts                 6464422                       # Number of dispatched load instructions (Count)
system.cpu0.iew.dispStoreInsts                3149728                       # Number of dispatched store instructions (Count)
system.cpu0.iew.dispNonSpecInsts                  713                       # Number of dispatched non-speculative instructions (Count)
system.cpu0.iew.iqFullEvents                     1901                       # Number of times the IQ has become full, causing a stall (Count)
system.cpu0.iew.lsqFullEvents                  117922                       # Number of times the LSQ has become full, causing a stall (Count)
system.cpu0.iew.memOrderViolationEvents           293                       # Number of memory order violations (Count)
system.cpu0.iew.predictedTakenIncorrect         10232                       # Number of branches that were predicted taken incorrectly (Count)
system.cpu0.iew.predictedNotTakenIncorrect        10045                       # Number of branches that were predicted not taken incorrectly (Count)
system.cpu0.iew.branchMispredicts               20277                       # Number of branch mispredicts detected at execute (Count)
system.cpu0.iew.instsToCommit                48837139                       # Cumulative count of insts sent to commit (Count)
system.cpu0.iew.writebackCount               48829183                       # Cumulative count of insts written-back (Count)
system.cpu0.iew.producerInst                 35126051                       # Number of instructions producing a value (Count)
system.cpu0.iew.consumerInst                 59919045                       # Number of instructions consuming a value (Count)
system.cpu0.iew.wbRate                       2.480241                       # Insts written-back per cycle ((Count/Cycle))
system.cpu0.iew.wbFanout                     0.586225                       # Average fanout of values written-back ((Count/Count))
system.cpu0.interrupts.clk_domain.clock          5328                       # Clock period in ticks (Tick)
system.cpu0.itb_walker_cache.blockedCycles::no_mshrs            0                       # number of cycles access was blocked (Cycle)
system.cpu0.itb_walker_cache.blockedCycles::no_targets            0                       # number of cycles access was blocked (Cycle)
system.cpu0.itb_walker_cache.blockedCauses::no_mshrs            0                       # number of times access was blocked (Count)
system.cpu0.itb_walker_cache.blockedCauses::no_targets            0                       # number of times access was blocked (Count)
system.cpu0.itb_walker_cache.avgBlocked::no_mshrs          nan                       # average number of cycles each access was blocked ((Cycle/Count))
system.cpu0.itb_walker_cache.avgBlocked::no_targets          nan                       # average number of cycles each access was blocked ((Cycle/Count))
system.cpu0.itb_walker_cache.replacements            0                       # number of replacements (Count)
system.cpu0.itb_walker_cache.power_state.pwrStateResidencyTicks::UNDEFINED   6605981073                       # Cumulative time (in ticks) in various power states (Tick)
[...]
system.mem_ctrls.dram.avgMemAccLat           31698.28                       # Average memory access latency per DRAM burst ((Tick/Count))
system.mem_ctrls.dram.readRowHits               39572                       # Number of row buffer hits during reads (Count)
system.mem_ctrls.dram.writeRowHits                  0                       # Number of row buffer hits during writes (Count)
system.mem_ctrls.dram.readRowHitRate            71.08                       # Row buffer hit rate for reads (Ratio)
system.mem_ctrls.dram.writeRowHitRate             nan                       # Row buffer hit rate for writes (Ratio)
system.mem_ctrls.dram.bytesPerActivate::samples        16097                       # Bytes accessed per row activation (Byte)
system.mem_ctrls.dram.bytesPerActivate::mean   221.250668                       # Bytes accessed per row activation (Byte)
system.mem_ctrls.dram.bytesPerActivate::gmean   123.099642                       # Bytes accessed per row activation (Byte)
system.mem_ctrls.dram.bytesPerActivate::stdev   311.858476                       # Bytes accessed per row activation (Byte)
system.mem_ctrls.dram.bytesPerActivate::0-127         8358     51.92%     51.92% # Bytes accessed per row activation (Byte)
system.mem_ctrls.dram.bytesPerActivate::128-255         4889     30.37%     82.29% # Bytes accessed per row activation (Byte)
system.mem_ctrls.dram.bytesPerActivate::256-383          349      2.17%     84.46% # Bytes accessed per row activation (Byte)
system.mem_ctrls.dram.bytesPerActivate::384-511          204      1.27%     85.73% # Bytes accessed per row activation (Byte)
system.mem_ctrls.dram.bytesPerActivate::512-639          143      0.89%     86.62% # Bytes accessed per row activation (Byte)
system.mem_ctrls.dram.bytesPerActivate::640-767          121      0.75%     87.37% # Bytes accessed per row activation (Byte)
system.mem_ctrls.dram.bytesPerActivate::768-895           82      0.51%     87.88% # Bytes accessed per row activation (Byte)
system.mem_ctrls.dram.bytesPerActivate::896-1023          103      0.64%     88.52% # Bytes accessed per row activation (Byte)
system.mem_ctrls.dram.bytesPerActivate::1024-1151         1848     11.48%    100.00% # Bytes accessed per row activation (Byte)
system.mem_ctrls.dram.bytesPerActivate::total        16097                       # Bytes accessed per row activation (Byte)
system.mem_ctrls.dram.bytesRead               3563264                       # Total bytes read (Byte)
system.mem_ctrls.dram.bytesWritten                  0                       # Total bytes written (Byte)
system.mem_ctrls.dram.avgRdBW              539.399668                       # Average DRAM read bandwidth in MiBytes/s ((Byte/Second))
system.mem_ctrls.dram.avgWrBW                       0                       # Average DRAM write bandwidth in MiBytes/s ((Byte/Second))
system.mem_ctrls.dram.peakBW                 12800.00                       # Theoretical peak bandwidth in MiByte/s ((Byte/Second))
system.mem_ctrls.dram.busUtil                    4.21                       # Data bus utilization in percentage (Ratio)
system.mem_ctrls.dram.busUtilRead                4.21                       # Data bus utilization in percentage for reads (Ratio)
system.mem_ctrls.dram.busUtilWrite               0.00                       # Data bus utilization in percentage for writes (Ratio)
system.mem_ctrls.dram.pageHitRate               71.08                       # Row buffer hit rate, read and write combined (Ratio)
system.mem_ctrls.dram.power_state.pwrStateResidencyTicks::UNDEFINED   6605981073                       # Cumulative time (in ticks) in various power states (Tick)
system.mem_ctrls.dram.rank0.actEnergy        57162840                       # Energy for activate commands per rank (pJ) (Joule)
system.mem_ctrls.dram.rank0.preEnergy        30363795                       # Energy for precharge commands per rank (pJ) (Joule)
system.mem_ctrls.dram.rank0.readEnergy      197078280                       # Energy for read commands per rank (pJ) (Joule)
system.mem_ctrls.dram.rank0.writeEnergy             0                       # Energy for write commands per rank (pJ) (Joule)
system.mem_ctrls.dram.rank0.refreshEnergy 521214720.000000                       # Energy for refresh commands per rank (pJ) (Joule)
system.mem_ctrls.dram.rank0.actBackEnergy   1625001600                       # Energy for active background per rank (pJ) (Joule)
system.mem_ctrls.dram.rank0.preBackEnergy   1168274400                       # Energy for precharge background per rank (pJ) (Joule)
system.mem_ctrls.dram.rank0.actPowerDownEnergy            0                       # Energy for active power-down per rank (pJ) (Joule)
system.mem_ctrls.dram.rank0.prePowerDownEnergy            0                       # Energy for precharge power-down per rank (pJ) (Joule)
system.mem_ctrls.dram.rank0.selfRefreshEnergy            0                       # Energy for self refresh per rank (pJ) (Joule)
system.mem_ctrls.dram.rank0.totalEnergy    3599095635                       # Total energy per rank (pJ) (Joule)
system.mem_ctrls.dram.rank0.averagePower   544.823789                       # Core power per rank (mW) (Watt)
system.mem_ctrls.dram.rank0.totalIdleTime            0                       # Total Idle time Per DRAM Rank (Tick)
system.mem_ctrls.dram.rank0.pwrStateTime::IDLE   3014007166                       # Time in different power states (Tick)
system.mem_ctrls.dram.rank0.pwrStateTime::REF    220480000                       # Time in different power states (Tick)
system.mem_ctrls.dram.rank0.pwrStateTime::SREF            0                       # Time in different power states (Tick)
system.mem_ctrls.dram.rank0.pwrStateTime::PRE_PDN            0                       # Time in different power states (Tick)
system.mem_ctrls.dram.rank0.pwrStateTime::ACT   3371493907                       # Time in different power states (Tick)
system.mem_ctrls.dram.rank0.pwrStateTime::ACT_PDN            0                       # Time in different power states (Tick)
system.mem_ctrls.dram.rank1.actEnergy        57819720                       # Energy for activate commands per rank (pJ) (Joule)
system.mem_ctrls.dram.rank1.preEnergy        30724320                       # Energy for precharge commands per rank (pJ) (Joule)
system.mem_ctrls.dram.rank1.readEnergy      200448360                       # Energy for read commands per rank (pJ) (Joule)
system.mem_ctrls.dram.rank1.writeEnergy             0                       # Energy for write commands per rank (pJ) (Joule)
system.mem_ctrls.dram.rank1.refreshEnergy 521214720.000000                       # Energy for refresh commands per rank (pJ) (Joule)
system.mem_ctrls.dram.rank1.actBackEnergy   1603795320                       # Energy for active background per rank (pJ) (Joule)
system.mem_ctrls.dram.rank1.preBackEnergy   1186132320                       # Energy for precharge background per rank (pJ) (Joule)
system.mem_ctrls.dram.rank1.actPowerDownEnergy            0                       # Energy for active power-down per rank (pJ) (Joule)
system.mem_ctrls.dram.rank1.prePowerDownEnergy            0                       # Energy for precharge power-down per rank (pJ) (Joule)
system.mem_ctrls.dram.rank1.selfRefreshEnergy            0                       # Energy for self refresh per rank (pJ) (Joule)
system.mem_ctrls.dram.rank1.totalEnergy    3600134760                       # Total energy per rank (pJ) (Joule)
system.mem_ctrls.dram.rank1.averagePower   544.981089                       # Core power per rank (mW) (Watt)
system.mem_ctrls.dram.rank1.totalIdleTime            0                       # Total Idle time Per DRAM Rank (Tick)
system.mem_ctrls.dram.rank1.pwrStateTime::IDLE   3060247344                       # Time in different power states (Tick)
system.mem_ctrls.dram.rank1.pwrStateTime::REF    220480000                       # Time in different power states (Tick)
system.mem_ctrls.dram.rank1.pwrStateTime::SREF            0                       # Time in different power states (Tick)
system.mem_ctrls.dram.rank1.pwrStateTime::PRE_PDN            0                       # Time in different power states (Tick)
system.mem_ctrls.dram.rank1.pwrStateTime::ACT   3325253729                       # Time in different power states (Tick)
system.mem_ctrls.dram.rank1.pwrStateTime::ACT_PDN            0                       # Time in different power states (Tick)
system.mem_ctrls.power_state.pwrStateResidencyTicks::UNDEFINED   6605981073                       # Cumulative time (in ticks) in various power states (Tick)
system.membus.transDist::ReadResp                5248                       # Transaction distribution (Count)
system.membus.transDist::UpgradeReq              2247                       # Transaction distribution (Count)
system.membus.transDist::ReadExReq              54619                       # Transaction distribution (Count)
system.membus.transDist::ReadExResp             50428                       # Transaction distribution (Count)
system.membus.transDist::ReadSharedReq           5248                       # Transaction distribution (Count)
system.membus.pktCount_system.l3.mem_side_port::system.mem_ctrls.port       117790                       # Packet count per connected requestor and responder (Count)
system.membus.pktCount_system.l3.mem_side_port::total       117790                       # Packet count per connected requestor and responder (Count)
system.membus.pktCount::total                  117790                       # Packet count per connected requestor and responder (Count)
system.membus.pktSize_system.l3.mem_side_port::system.mem_ctrls.port      3563264                       # Cumulative packet size per connected requestor and responder (Byte)
system.membus.pktSize_system.l3.mem_side_port::total      3563264                       # Cumulative packet size per connected requestor and responder (Byte)
system.membus.pktSize::total                  3563264                       # Cumulative packet size per connected requestor and responder (Byte)
system.membus.snoops                             6438                       # Total snoops (Count)
system.membus.snoopTraffic                          0                       # Total snoop traffic (Byte)
system.membus.snoopFanout::samples              62114                       # Request fanout histogram (Count)
system.membus.snoopFanout::mean                     0                       # Request fanout histogram (Count)
system.membus.snoopFanout::stdev                    0                       # Request fanout histogram (Count)
system.membus.snoopFanout::underflows               0      0.00%      0.00% # Request fanout histogram (Count)
system.membus.snoopFanout::0                    62114    100.00%    100.00% # Request fanout histogram (Count)
system.membus.snoopFanout::1                        0      0.00%    100.00% # Request fanout histogram (Count)
system.membus.snoopFanout::overflows                0      0.00%    100.00% # Request fanout histogram (Count)
system.membus.snoopFanout::min_value                0                       # Request fanout histogram (Count)
system.membus.snoopFanout::max_value                0                       # Request fanout histogram (Count)
system.membus.snoopFanout::total                62114                       # Request fanout histogram (Count)
system.membus.power_state.pwrStateResidencyTicks::UNDEFINED   6605981073                       # Cumulative time (in ticks) in various power states (Tick)
system.membus.reqLayer8.occupancy            84455244                       # Layer occupancy (ticks) (Tick)
system.membus.reqLayer8.utilization               0.0                       # Layer utilization (Ratio)
system.membus.respLayer1.occupancy          297884775                       # Layer occupancy (ticks) (Tick)
system.membus.respLayer1.utilization              0.0                       # Layer utilization (Ratio)
system.membus.snoop_filter.totRequests          62114                       # Total number of requests made to the snoop filter. (Count)
system.membus.snoop_filter.hitSingleRequests         6438                       # Number of requests hitting in the snoop filter with a single holder of the requested data. (Count)
system.membus.snoop_filter.hitMultiRequests            0                       # Number of requests hitting in the snoop filter with multiple (>1) holders of the requested data. (Count)
system.membus.snoop_filter.totSnoops                0                       # Total number of snoops made to the snoop filter. (Count)
system.membus.snoop_filter.hitSingleSnoops            0                       # Number of snoops hitting in the snoop filter with a single holder of the requested data. (Count)
system.membus.snoop_filter.hitMultiSnoops            0                       # Number of snoops hitting in the snoop filter with multiple (>1) holders of the requested data. (Count)
system.tol3bus.transDist::ReadResp              60160                       # Transaction distribution (Count)
system.tol3bus.transDist::ReadRespWithInvalidate           12                       # Transaction distribution (Count)
system.tol3bus.transDist::WritebackDirty         9518                       # Transaction distribution (Count)
system.tol3bus.transDist::CleanEvict             3111                       # Transaction distribution (Count)
system.tol3bus.transDist::UpgradeReq            16214                       # Transaction distribution (Count)
system.tol3bus.transDist::UpgradeResp           16214                       # Transaction distribution (Count)
system.tol3bus.transDist::ReadExReq             61867                       # Transaction distribution (Count)
system.tol3bus.transDist::ReadExResp            61867                       # Transaction distribution (Count)
system.tol3bus.transDist::ReadSharedReq         60172                       # Transaction distribution (Count)
system.tol3bus.pktCount_system.cpu0.l2cache.mem_side_port::system.l3.cpu_side_port       118270                       # Packet count per connected requestor and responder (Count)
system.tol3bus.pktCount_system.cpu1.l2cache.mem_side_port::system.l3.cpu_side_port        37129                       # Packet count per connected requestor and responder (Count)
system.tol3bus.pktCount_system.cpu2.l2cache.mem_side_port::system.l3.cpu_side_port        37170                       # Packet count per connected requestor and responder (Count)
system.tol3bus.pktCount_system.cpu3.l2cache.mem_side_port::system.l3.cpu_side_port        36946                       # Packet count per connected requestor and responder (Count)
system.tol3bus.pktCount::total                 229515                       # Packet count per connected requestor and responder (Count)
system.tol3bus.pktSize_system.cpu0.l2cache.mem_side_port::system.l3.cpu_side_port      3474688                       # Cumulative packet size per connected requestor and responder (Byte)
system.tol3bus.pktSize_system.cpu1.l2cache.mem_side_port::system.l3.cpu_side_port       425600                       # Cumulative packet size per connected requestor and responder (Byte)
system.tol3bus.pktSize_system.cpu2.l2cache.mem_side_port::system.l3.cpu_side_port       433408                       # Cumulative packet size per connected requestor and responder (Byte)
system.tol3bus.pktSize_system.cpu3.l2cache.mem_side_port::system.l3.cpu_side_port       414080                       # Cumulative packet size per connected requestor and responder (Byte)
system.tol3bus.pktSize::total                 4747776                       # Cumulative packet size per connected requestor and responder (Byte)
system.tol3bus.snoops                           59620                       # Total snoops (Count)
system.tol3bus.snoopTraffic                   3671872                       # Total snoop traffic (Byte)
system.tol3bus.snoopFanout::samples            138253                       # Request fanout histogram (Count)
system.tol3bus.snoopFanout::mean             0.614851                       # Request fanout histogram (Count)
system.tol3bus.snoopFanout::stdev            0.602399                       # Request fanout histogram (Count)
system.tol3bus.snoopFanout::underflows              0      0.00%      0.00% # Request fanout histogram (Count)
system.tol3bus.snoopFanout::0                   61309     44.35%     44.35% # Request fanout histogram (Count)
system.tol3bus.snoopFanout::1                   69537     50.30%     94.64% # Request fanout histogram (Count)
system.tol3bus.snoopFanout::2                    6753      4.88%     99.53% # Request fanout histogram (Count)
system.tol3bus.snoopFanout::3                     654      0.47%    100.00% # Request fanout histogram (Count)
system.tol3bus.snoopFanout::4                       0      0.00%    100.00% # Request fanout histogram (Count)
system.tol3bus.snoopFanout::overflows               0      0.00%    100.00% # Request fanout histogram (Count)
system.tol3bus.snoopFanout::min_value               0                       # Request fanout histogram (Count)
system.tol3bus.snoopFanout::max_value               3                       # Request fanout histogram (Count)
system.tol3bus.snoopFanout::total              138253                       # Request fanout histogram (Count)
system.tol3bus.power_state.pwrStateResidencyTicks::UNDEFINED   6605981073                       # Cumulative time (in ticks) in various power states (Tick)
system.tol3bus.reqLayer0.occupancy           56584687                       # Layer occupancy (ticks) (Tick)
system.tol3bus.reqLayer0.utilization              0.0                       # Layer utilization (Ratio)
system.tol3bus.respLayer0.occupancy          54050873                       # Layer occupancy (ticks) (Tick)
system.tol3bus.respLayer0.utilization             0.0                       # Layer utilization (Ratio)
system.tol3bus.respLayer1.occupancy          24470465                       # Layer occupancy (ticks) (Tick)
system.tol3bus.respLayer1.utilization             0.0                       # Layer utilization (Ratio)
system.tol3bus.respLayer2.occupancy          24395508                       # Layer occupancy (ticks) (Tick)
system.tol3bus.respLayer2.utilization             0.0                       # Layer utilization (Ratio)
system.tol3bus.respLayer3.occupancy          24462079                       # Layer occupancy (ticks) (Tick)
system.tol3bus.respLayer3.utilization             0.0                       # Layer utilization (Ratio)
system.tol3bus.snoop_filter.totRequests        150882                       # Total number of requests made to the snoop filter. (Count)
system.tol3bus.snoop_filter.hitSingleRequests        60387                       # Number of requests hitting in the snoop filter with a single holder of the requested data. (Count)
system.tol3bus.snoop_filter.hitMultiRequests        29641                       # Number of requests hitting in the snoop filter with multiple (>1) holders of the requested data. (Count)
system.tol3bus.snoop_filter.totSnoops               0                       # Total number of snoops made to the snoop filter. (Count)
system.tol3bus.snoop_filter.hitSingleSnoops            0                       # Number of snoops hitting in the snoop filter with a single holder of the requested data. (Count)
system.tol3bus.snoop_filter.hitMultiSnoops            0                       # Number of snoops hitting in the snoop filter with multiple (>1) holders of the requested data. (Count)
system.voltage_domain.voltage                       1                       # Voltage in Volts (Volt)
system.workload.inst.arm                            0                       # number of arm instructions executed (Count)
system.workload.inst.quiesce                        0                       # number of quiesce instructions executed (Count)

---------- End Simulation Statistics   ----------
