
---------- Begin Simulation Statistics ----------
simSeconds                                   0.049529                       # Number of seconds simulated (Second)
simTicks                                  49528905183                       # Number of ticks simulated (Tick)
finalTick                                 49528905183                       # Number of ticks from beginning of simulation (restored from checkpoints and never reset) (Tick)
simFreq                                  1000000000000                       # The number of ticks per simulated second ((Tick/Second))
hostSeconds                                    737.54                       # Real time elapsed on the host (Second)
hostTickRate                                 67154285                       # The number of ticks simulated per host second (ticks/s) ((Tick/Second))
hostMemory                                     802344                       # Number of bytes of host memory used (Byte)
simInsts                                    417348047                       # Number of instructions simulated (Count)
simOps                                      417350092                       # Number of ops (including micro ops) simulated (Count)
hostInstRate                                   565865                       # Simulator instruction rate (inst/s) ((Count/Second))
hostOpRate                                     565868                       # Simulator op (including micro ops) rate (op/s) ((Count/Second))
system.clk_domain.clock                          1000                       # Clock period in ticks (Tick)
system.cpu0.numCycles                       142289594                       # Number of cpu cycles simulated (Cycle)
system.cpu0.numWorkItemsStarted                     0                       # Number of work items this cpu started (Count)
system.cpu0.numWorkItemsCompleted                   0                       # Number of work items this cpu completed (Count)
system.cpu0.instsAdded                      130881544                       # Number of instructions added to the IQ (excludes non-spec) (Count)
system.cpu0.nonSpecInstsAdded                    2962                       # Number of non-speculative instructions added to the IQ (Count)
system.cpu0.instsIssued                     130032636                       # Number of instructions issued (Count)
system.cpu0.squashedInstsIssued                  5071                       # Number of squashed instructions issued (Count)
system.cpu0.squashedInstsExamined             1232292                       # Number of squashed instructions iterated over during squash; mainly for profiling (Count)
system.cpu0.squashedOperandsExamined          1013747                       # Number of squashed operands that are examined and possibly removed from graph (Count)
system.cpu0.squashedNonSpecRemoved                549                       # Number of squashed non-spec instructions that were removed (Count)
system.cpu0.numIssuedDist::samples          142198918                       # Number of insts issued each cycle (Count)
system.cpu0.numIssuedDist::mean              0.914442                       # Number of insts issued each cycle (Count)
system.cpu0.numIssuedDist::stdev             1.163180                       # Number of insts issued each cycle (Count)
system.cpu0.numIssuedDist::underflows               0      0.00%      0.00% # Number of insts issued each cycle (Count)
system.cpu0.numIssuedDist::0                 68093250     47.89%     47.89% # Number of insts issued each cycle (Count)
system.cpu0.numIssuedDist::1                 41148649     28.94%     76.82% # Number of insts issued each cycle (Count)
system.cpu0.numIssuedDist::2                 16926686     11.90%     88.73% # Number of insts issued each cycle (Count)
system.cpu0.numIssuedDist::3                 12163603      8.55%     97.28% # Number of insts issued each cycle (Count)
system.cpu0.numIssuedDist::4                  1895447      1.33%     98.61% # Number of insts issued each cycle (Count)
system.cpu0.numIssuedDist::5                  1358032      0.96%     99.57% # Number of insts issued each cycle (Count)
system.cpu0.numIssuedDist::6                   259587      0.18%     99.75% # Number of insts issued each cycle (Count)
system.cpu0.numIssuedDist::7                   218976      0.15%     99.91% # Number of insts issued each cycle (Count)
system.cpu0.numIssuedDist::8                   134688      0.09%    100.00% # Number of insts issued each cycle (Count)
system.cpu0.numIssuedDist::overflows                0      0.00%    100.00% # Number of insts issued each cycle (Count)
system.cpu0.numIssuedDist::min_value                0                       # Number of insts issued each cycle (Count)
system.cpu0.numIssuedDist::max_value                8                       # Number of insts issued each cycle (Count)
system.cpu0.numIssuedDist::total            142198918                       # Number of insts issued each cycle (Count)
system.cpu0.statFuBusy::No_OpClass                  0      0.00%      0.00% # attempts to use FU when none available (Count)
system.cpu0.statFuBusy::IntAlu                  18317      0.05%      0.05% # attempts to use FU when none available (Count)
system.cpu0.statFuBusy::IntMult              12919408     37.52%     37.57% # attempts to use FU when none available (Count)
system.cpu0.statFuBusy::IntDiv               20982971     60.93%     98.50% # attempts to use FU when none available (Count)
system.cpu0.statFuBusy::FloatAdd                   18      0.00%     98.50% # attempts to use FU when none available (Count)
system.cpu0.statFuBusy::FloatCmp                    0      0.00%     98.50% # attempts to use FU when none available (Count)
system.cpu0.statFuBusy::FloatCvt                    0      0.00%     98.50% # attempts to use FU when none available (Count)
system.cpu0.statFuBusy::FloatMult               31022      0.09%     98.59% # attempts to use FU when none available (Count)
system.cpu0.statFuBusy::FloatMultAcc                0      0.00%     98.59% # attempts to use FU when none available (Count)
system.cpu0.statFuBusy::FloatDiv                 9106      0.03%     98.62% # attempts to use FU when none available (Count)
system.cpu0.statFuBusy::FloatMisc                1278      0.00%     98.62% # attempts to use FU when none available (Count)
system.cpu0.statFuBusy::FloatSqrt                   0      0.00%     98.62% # attempts to use FU when none available (Count)
system.cpu0.statFuBusy::SimdAdd                     0      0.00%     98.62% # attempts to use FU when none available (Count)
system.cpu0.statFuBusy::SimdAddAcc                  0      0.00%     98.62% # attempts to use FU when none available (Count)
system.cpu0.statFuBusy::SimdAlu                     0      0.00%     98.62% # attempts to use FU when none available (Count)
system.cpu0.statFuBusy::SimdCmp                     0      0.00%     98.62% # attempts to use FU when none available (Count)
system.cpu0.statFuBusy::SimdCvt                     0      0.00%     98.62% # attempts to use FU when none available (Count)
system.cpu0.statFuBusy::SimdMisc                    0      0.00%     98.62% # attempts to use FU when none available (Count)
system.cpu0.statFuBusy::SimdMult                    0      0.00%     98.62% # attempts to use FU when none available (Count)
system.cpu0.statFuBusy::SimdMultAcc                 0      0.00%     98.62% # attempts to use FU when none available (Count)
system.cpu0.statFuBusy::SimdShift                   0      0.00%     98.62% # attempts to use FU when none available (Count)
system.cpu0.statFuBusy::SimdShiftAcc                0      0.00%     98.62% # attempts to use FU when none available (Count)
system.cpu0.statFuBusy::SimdDiv                     0      0.00%     98.62% # attempts to use FU when none available (Count)
system.cpu0.statFuBusy::SimdSqrt                    0      0.00%     98.62% # attempts to use FU when none available (Count)
system.cpu0.statFuBusy::SimdFloatAdd                0      0.00%     98.62% # attempts to use FU when none available (Count)
system.cpu0.statFuBusy::SimdFloatAlu                0      0.00%     98.62% # attempts to use FU when none available (Count)
system.cpu0.statFuBusy::SimdFloatCmp                0      0.00%     98.62% # attempts to use FU when none available (Count)
system.cpu0.statFuBusy::SimdFloatCvt                0      0.00%     98.62% # attempts to use FU when none available (Count)
system.cpu0.statFuBusy::SimdFloatDiv                0      0.00%     98.62% # attempts to use FU when none available (Count)
system.cpu0.statFuBusy::SimdFloatMisc               0      0.00%     98.62% # attempts to use FU when none available (Count)
system.cpu0.statFuBusy::SimdFloatMult               0      0.00%     98.62% # attempts to use FU when none available (Count)
system.cpu0.statFuBusy::SimdFloatMultAcc            0      0.00%     98.62% # attempts to use FU when none available (Count)
system.cpu0.statFuBusy::SimdFloatSqrt               0      0.00%     98.62% # attempts to use FU when none available (Count)
system.cpu0.statFuBusy::SimdReduceAdd               0      0.00%     98.62% # attempts to use FU when none available (Count)
system.cpu0.statFuBusy::SimdReduceAlu               0      0.00%     98.62% # attempts to use FU when none available (Count)
system.cpu0.statFuBusy::SimdReduceCmp               0      0.00%     98.62% # attempts to use FU when none available (Count)
system.cpu0.statFuBusy::SimdFloatReduceAdd            0      0.00%     98.62% # attempts to use FU when none available (Count)
system.cpu0.statFuBusy::SimdFloatReduceCmp            0      0.00%     98.62% # attempts to use FU when none available (Count)
system.cpu0.statFuBusy::SimdAes                     0      0.00%     98.62% # attempts to use FU when none available (Count)
system.cpu0.statFuBusy::SimdAesMix                  0      0.00%     98.62% # attempts to use FU when none available (Count)
system.cpu0.statFuBusy::SimdSha1Hash                0      0.00%     98.62% # attempts to use FU when none available (Count)
system.cpu0.statFuBusy::SimdSha1Hash2               0      0.00%     98.62% # attempts to use FU when none available (Count)
system.cpu0.statFuBusy::SimdSha256Hash              0      0.00%     98.62% # attempts to use FU when none available (Count)
system.cpu0.statFuBusy::SimdSha256Hash2             0      0.00%     98.62% # attempts to use FU when none available (Count)
system.cpu0.statFuBusy::SimdShaSigma2               0      0.00%     98.62% # attempts to use FU when none available (Count)
system.cpu0.statFuBusy::SimdShaSigma3               0      0.00%     98.62% # attempts to use FU when none available (Count)
system.cpu0.statFuBusy::SimdPredAlu                 0      0.00%     98.62% # attempts to use FU when none available (Count)
system.cpu0.statFuBusy::MemRead                472738      1.37%    100.00% # attempts to use FU when none available (Count)
system.cpu0.statFuBusy::MemWrite                 1003      0.00%    100.00% # attempts to use FU when none available (Count)
system.cpu0.statFuBusy::FloatMemRead              117      0.00%    100.00% # attempts to use FU when none available (Count)
system.cpu0.statFuBusy::FloatMemWrite              10      0.00%    100.00% # attempts to use FU when none available (Count)
system.cpu0.statFuBusy::IprAccess                   0      0.00%    100.00% # attempts to use FU when none available (Count)
system.cpu0.statFuBusy::InstPrefetch                0      0.00%    100.00% # attempts to use FU when none available (Count)
system.cpu0.statIssuedInstType_0::No_OpClass         1378      0.00%      0.00% # Number of instructions issued per FU type, per thread (Count)
system.cpu0.statIssuedInstType_0::IntAlu     57808625     44.46%     44.46% # Number of instructions issued per FU type, per thread (Count)
system.cpu0.statIssuedInstType_0::IntMult      1328630      1.02%     45.48% # Number of instructions issued per FU type, per thread (Count)
system.cpu0.statIssuedInstType_0::IntDiv      2114763      1.63%     47.11% # Number of instructions issued per FU type, per thread (Count)
system.cpu0.statIssuedInstType_0::FloatAdd     11678201      8.98%     56.09% # Number of instructions issued per FU type, per thread (Count)
system.cpu0.statIssuedInstType_0::FloatCmp           11      0.00%     56.09% # Number of instructions issued per FU type, per thread (Count)
system.cpu0.statIssuedInstType_0::FloatCvt       262181      0.20%     56.29% # Number of instructions issued per FU type, per thread (Count)
system.cpu0.statIssuedInstType_0::FloatMult     11416813      8.78%     65.07% # Number of instructions issued per FU type, per thread (Count)
system.cpu0.statIssuedInstType_0::FloatMultAcc            0      0.00%     65.07% # Number of instructions issued per FU type, per thread (Count)
system.cpu0.statIssuedInstType_0::FloatDiv       291849      0.22%     65.29% # Number of instructions issued per FU type, per thread (Count)
system.cpu0.statIssuedInstType_0::FloatMisc       729092      0.56%     65.85% # Number of instructions issued per FU type, per thread (Count)
system.cpu0.statIssuedInstType_0::FloatSqrt            1      0.00%     65.85% # Number of instructions issued per FU type, per thread (Count)
system.cpu0.statIssuedInstType_0::SimdAdd            0      0.00%     65.85% # Number of instructions issued per FU type, per thread (Count)
system.cpu0.statIssuedInstType_0::SimdAddAcc            0      0.00%     65.85% # Number of instructions issued per FU type, per thread (Count)
system.cpu0.statIssuedInstType_0::SimdAlu            0      0.00%     65.85% # Number of instructions issued per FU type, per thread (Count)
system.cpu0.statIssuedInstType_0::SimdCmp            0      0.00%     65.85% # Number of instructions issued per FU type, per thread (Count)
system.cpu0.statIssuedInstType_0::SimdCvt            0      0.00%     65.85% # Number of instructions issued per FU type, per thread (Count)
system.cpu0.statIssuedInstType_0::SimdMisc            0      0.00%     65.85% # Number of instructions issued per FU type, per thread (Count)
system.cpu0.statIssuedInstType_0::SimdMult            0      0.00%     65.85% # Number of instructions issued per FU type, per thread (Count)
system.cpu0.statIssuedInstType_0::SimdMultAcc            0      0.00%     65.85% # Number of instructions issued per FU type, per thread (Count)
system.cpu0.statIssuedInstType_0::SimdShift            0      0.00%     65.85% # Number of instructions issued per FU type, per thread (Count)
system.cpu0.statIssuedInstType_0::SimdShiftAcc            0      0.00%     65.85% # Number of instructions issued per FU type, per thread (Count)
system.cpu0.statIssuedInstType_0::SimdDiv            0      0.00%     65.85% # Number of instructions issued per FU type, per thread (Count)
system.cpu0.statIssuedInstType_0::SimdSqrt            0      0.00%     65.85% # Number of instructions issued per FU type, per thread (Count)
system.cpu0.statIssuedInstType_0::SimdFloatAdd            0      0.00%     65.85% # Number of instructions issued per FU type, per thread (Count)
system.cpu0.statIssuedInstType_0::SimdFloatAlu            0      0.00%     65.85% # Number of instructions issued per FU type, per thread (Count)
system.cpu0.statIssuedInstType_0::SimdFloatCmp            0      0.00%     65.85% # Number of instructions issued per FU type, per thread (Count)
system.cpu0.statIssuedInstType_0::SimdFloatCvt            0      0.00%     65.85% # Number of instructions issued per FU type, per thread (Count)
system.cpu0.statIssuedInstType_0::SimdFloatDiv            0      0.00%     65.85% # Number of instructions issued per FU type, per thread (Count)
system.cpu0.statIssuedInstType_0::SimdFloatMisc            0      0.00%     65.85% # Number of instructions issued per FU type, per thread (Count)
system.cpu0.statIssuedInstType_0::SimdFloatMult            0      0.00%     65.85% # Number of instructions issued per FU type, per thread (Count)
system.cpu0.statIssuedInstType_0::SimdFloatMultAcc            0      0.00%     65.85% # Number of instructions issued per FU type, per thread (Count)
system.cpu0.statIssuedInstType_0::SimdFloatSqrt            0      0.00%     65.85% # Number of instructions issued per FU type, per thread (Count)
system.cpu0.statIssuedInstType_0::SimdReduceAdd            0      0.00%     65.85% # Number of instructions issued per FU type, per thread (Count)
system.cpu0.statIssuedInstType_0::SimdReduceAlu            0      0.00%     65.85% # Number of instructions issued per FU type, per thread (Count)
system.cpu0.statIssuedInstType_0::SimdReduceCmp            0      0.00%     65.85% # Number of instructions issued per FU type, per thread (Count)
system.cpu0.statIssuedInstType_0::SimdFloatReduceAdd            0      0.00%     65.85% # Number of instructions issued per FU type, per thread (Count)
system.cpu0.statIssuedInstType_0::SimdFloatReduceCmp            0      0.00%     65.85% # Number of instructions issued per FU type, per thread (Count)
system.cpu0.statIssuedInstType_0::SimdAes            0      0.00%     65.85% # Number of instructions issued per FU type, per thread (Count)
system.cpu0.statIssuedInstType_0::SimdAesMix            0      0.00%     65.85% # Number of instructions issued per FU type, per thread (Count)
system.cpu0.statIssuedInstType_0::SimdSha1Hash            0      0.00%     65.85% # Number of instructions issued per FU type, per thread (Count)
system.cpu0.statIssuedInstType_0::SimdSha1Hash2            0      0.00%     65.85% # Number of instructions issued per FU type, per thread (Count)
system.cpu0.statIssuedInstType_0::SimdSha256Hash            0      0.00%     65.85% # Number of instructions issued per FU type, per thread (Count)
system.cpu0.statIssuedInstType_0::SimdSha256Hash2            0      0.00%     65.85% # Number of instructions issued per FU type, per thread (Count)
system.cpu0.statIssuedInstType_0::SimdShaSigma2            0      0.00%     65.85% # Number of instructions issued per FU type, per thread (Count)
system.cpu0.statIssuedInstType_0::SimdShaSigma3            0      0.00%     65.85% # Number of instructions issued per FU type, per thread (Count)
system.cpu0.statIssuedInstType_0::SimdPredAlu            0      0.00%     65.85% # Number of instructions issued per FU type, per thread (Count)
system.cpu0.statIssuedInstType_0::MemRead      6126791      4.71%     70.57% # Number of instructions issued per FU type, per thread (Count)
system.cpu0.statIssuedInstType_0::MemWrite      2129135      1.64%     72.20% # Number of instructions issued per FU type, per thread (Count)
system.cpu0.statIssuedInstType_0::FloatMemRead     24174260     18.59%     90.79% # Number of instructions issued per FU type, per thread (Count)
system.cpu0.statIssuedInstType_0::FloatMemWrite     11970906      9.21%    100.00% # Number of instructions issued per FU type, per thread (Count)
system.cpu0.statIssuedInstType_0::IprAccess            0      0.00%    100.00% # Number of instructions issued per FU type, per thread (Count)
system.cpu0.statIssuedInstType_0::InstPrefetch            0      0.00%    100.00% # Number of instructions issued per FU type, per thread (Count)
system.cpu0.statIssuedInstType_0::total     130032636                       # Number of instructions issued per FU type, per thread (Count)
system.cpu0.issueRate                        0.913859                       # Inst issue rate ((Count/Cycle))
system.cpu0.fuBusy                           34435988                       # FU busy when requested (Count)
system.cpu0.fuBusyRate                       0.264826                       # FU busy rate (busy events/executed inst) ((Count/Count))
system.cpu0.intInstQueueReads               315617045                       # Number of integer instruction queue reads (Count)
system.cpu0.intInstQueueWrites               69931183                       # Number of integer instruction queue writes (Count)
system.cpu0.intInstQueueWakeupAccesses       69335764                       # Number of integer instruction queue wakeup accesses (Count)
system.cpu0.fpInstQueueReads                121088204                       # Number of floating instruction queue reads (Count)
system.cpu0.fpInstQueueWrites                62186230                       # Number of floating instruction queue writes (Count)
system.cpu0.fpInstQueueWakeupAccesses        60465063                       # Number of floating instruction queue wakeup accesses (Count)
system.cpu0.vecInstQueueReads                       0                       # Number of vector instruction queue reads (Count)
system.cpu0.vecInstQueueWrites                      0                       # Number of vector instruction queue writes (Count)
system.cpu0.vecInstQueueWakeupAccesses              0                       # Number of vector instruction queue wakeup accesses (Count)
system.cpu0.intAluAccesses                  103902381                       # Number of integer alu accesses (Count)
system.cpu0.fpAluAccesses                    60564865                       # Number of floating point alu accesses (Count)
system.cpu0.vecAluAccesses                          0                       # Number of vector alu accesses (Count)
system.cpu0.numInsts                        129813077                       # Number of executed instructions (Count)
system.cpu0.numLoadInsts                     30246274                       # Number of load instructions executed (Count)
system.cpu0.numSquashedInsts                   219559                       # Number of squashed instructions skipped in execute (Count)
system.cpu0.numSwp                                  0                       # Number of swp insts executed (Count)
system.cpu0.numNop                                  0                       # Number of nop insts executed (Count)
system.cpu0.numRefs                          44346044                       # Number of memory reference insts executed (Count)
system.cpu0.numBranches                      17527683                       # Number of branches executed (Count)
system.cpu0.numStoreInsts                    14099770                       # Number of stores executed (Count)
system.cpu0.numRate                          0.912316                       # Inst execution rate ((Count/Cycle))
system.cpu0.timesIdled                            671                       # Number of times that the entire CPU went into an idle state and unscheduled itself (Count)
system.cpu0.idleCycles                          90676                       # Total number of cycles that the CPU has spent unscheduled due to idling (Cycle)
system.cpu0.quiesceCycles                     6445859                       # Total number of cycles that CPU has spent quiesced or waiting for an interrupt (Cycle)
system.cpu0.committedInsts                  129651591                       # Number of Instructions Simulated (Count)
system.cpu0.committedOps                    129652213                       # Number of Ops (including micro ops) Simulated (Count)
system.cpu0.cpi                              1.097477                       # CPI: Cycles Per Instruction ((Cycle/Count))
system.cpu0.totalCpi                         1.097477                       # CPI: Total CPI of All Threads ((Cycle/Count))
system.cpu0.ipc                              0.911181                       # IPC: Instructions Per Cycle ((Count/Cycle))
system.cpu0.totalIpc                         0.911181                       # IPC: Total IPC of All Threads ((Count/Cycle))
system.cpu0.intRegfileReads                 130195840                       # Number of integer regfile reads (Count)
system.cpu0.intRegfileWrites                 50474174                       # Number of integer regfile writes (Count)
system.cpu0.fpRegfileReads                   60202431                       # Number of floating regfile reads (Count)
system.cpu0.fpRegfileWrites                  48494855                       # Number of floating regfile writes (Count)
system.cpu0.miscRegfileReads                108492747                       # number of misc regfile reads (Count)
system.cpu0.miscRegfileWrites                24376099                       # number of misc regfile writes (Count)
system.cpu0.MemDepUnit__0.insertedLoads      31045368                       # Number of loads inserted to the mem dependence unit. (Count)
system.cpu0.MemDepUnit__0.insertedStores     14110472                       # Number of stores inserted to the mem dependence unit. (Count)
system.cpu0.MemDepUnit__0.conflictingLoads     26604212                       # Number of conflicting loads. (Count)
system.cpu0.MemDepUnit__0.conflictingStores     13381332                       # Number of conflicting stores. (Count)
system.cpu0.MemDepUnit__1.insertedLoads             0                       # Number of loads inserted to the mem dependence unit. (Count)
system.cpu0.MemDepUnit__1.insertedStores            0                       # Number of stores inserted to the mem dependence unit. (Count)
system.cpu0.MemDepUnit__1.conflictingLoads            0                       # Number of conflicting loads. (Count)
system.cpu0.MemDepUnit__1.conflictingStores            0                       # Number of conflicting stores. (Count)
system.cpu0.MemDepUnit__2.insertedLoads             0                       # Number of loads inserted to the mem dependence unit. (Count)
system.cpu0.MemDepUnit__2.insertedStores            0                       # Number of stores inserted to the mem dependence unit. (Count)
system.cpu0.MemDepUnit__2.conflictingLoads            0                       # Number of conflicting loads. (Count)
system.cpu0.MemDepUnit__2.conflictingStores            0                       # Number of conflicting stores. (Count)
system.cpu0.MemDepUnit__3.insertedLoads             0                       # Number of loads inserted to the mem dependence unit. (Count)
system.cpu0.MemDepUnit__3.insertedStores            0                       # Number of stores inserted to the mem dependence unit. (Count)
system.cpu0.MemDepUnit__3.conflictingLoads            0                       # Number of conflicting loads. (Count)
system.cpu0.MemDepUnit__3.conflictingStores            0                       # Number of conflicting stores. (Count)
system.cpu0.branchPred.lookups               22659995                       # Number of BP lookups (Count)
system.cpu0.branchPred.condPredicted         20519203                       # Number of conditional branches predicted (Count)
system.cpu0.branchPred.condIncorrect           760552                       # Number of conditional branches incorrect (Count)
system.cpu0.branchPred.BTBLookups            19375656                       # Number of BTB lookups (Count)
system.cpu0.branchPred.BTBHits               19373612                       # Number of BTB hits (Count)
system.cpu0.branchPred.BTBHitRatio           0.999895                       # BTB Hit Ratio (Ratio)
system.cpu0.branchPred.RASUsed                 796087                       # Number of times the RAS was used to get a target. (Count)
system.cpu0.branchPred.RASIncorrect                 8                       # Number of incorrect RAS predictions. (Count)
system.cpu0.branchPred.indirectLookups            414                       # Number of indirect predictor lookups. (Count)
system.cpu0.branchPred.indirectHits                83                       # Number of indirect target hits. (Count)
system.cpu0.branchPred.indirectMisses             331                       # Number of indirect misses. (Count)
system.cpu0.branchPred.indirectMispredicted          117                       # Number of mispredicted indirect branches. (Count)
system.cpu0.commit.commitSquashedInsts        1229021                       # The number of squashed insts skipped by commit (Count)
system.cpu0.commit.commitNonSpecStalls           2413                       # The number of times commit has been forced to stall to communicate backwards (Count)
system.cpu0.commit.branchMispredicts           760065                       # The number of times a branch was mispredicted (Count)
system.cpu0.commit.numCommittedDist::samples    141413135                       # Number of insts commited each cycle (Count)
system.cpu0.commit.numCommittedDist::mean     0.916833                       # Number of insts commited each cycle (Count)
system.cpu0.commit.numCommittedDist::stdev     1.415339                       # Number of insts commited each cycle (Count)
system.cpu0.commit.numCommittedDist::underflows            0      0.00%      0.00% # Number of insts commited each cycle (Count)
system.cpu0.commit.numCommittedDist::0       75491763     53.38%     53.38% # Number of insts commited each cycle (Count)
system.cpu0.commit.numCommittedDist::1       26153300     18.49%     71.88% # Number of insts commited each cycle (Count)
system.cpu0.commit.numCommittedDist::2       33321098     23.56%     95.44% # Number of insts commited each cycle (Count)
system.cpu0.commit.numCommittedDist::3        1848484      1.31%     96.75% # Number of insts commited each cycle (Count)
system.cpu0.commit.numCommittedDist::4         990512      0.70%     97.45% # Number of insts commited each cycle (Count)
system.cpu0.commit.numCommittedDist::5         282362      0.20%     97.65% # Number of insts commited each cycle (Count)
system.cpu0.commit.numCommittedDist::6         169038      0.12%     97.77% # Number of insts commited each cycle (Count)
system.cpu0.commit.numCommittedDist::7         329445      0.23%     98.00% # Number of insts commited each cycle (Count)
system.cpu0.commit.numCommittedDist::8        2827133      2.00%    100.00% # Number of insts commited each cycle (Count)
system.cpu0.commit.numCommittedDist::overflows            0      0.00%    100.00% # Number of insts commited each cycle (Count)
system.cpu0.commit.numCommittedDist::min_value            0                       # Number of insts commited each cycle (Count)
system.cpu0.commit.numCommittedDist::max_value            8                       # Number of insts commited each cycle (Count)
system.cpu0.commit.numCommittedDist::total    141413135                       # Number of insts commited each cycle (Count)
system.cpu0.commit.instsCommitted           129651591                       # Number of instructions committed (Count)
system.cpu0.commit.opsCommitted             129652213                       # Number of ops (including micro ops) committed (Count)
system.cpu0.commit.memRefs                   44309901                       # Number of memory references committed (Count)
system.cpu0.commit.loads                     30216474                       # Number of loads committed (Count)
system.cpu0.commit.amos                           641                       # Number of atomic instructions committed (Count)
system.cpu0.commit.membars                       1160                       # Number of memory barriers committed (Count)
system.cpu0.commit.branches                  17496002                       # Number of branches committed (Count)
system.cpu0.commit.vectorInstructions               0                       # Number of committed Vector instructions. (Count)
system.cpu0.commit.floating                  60459728                       # Number of committed floating point instructions. (Count)
system.cpu0.commit.integer                  105000843                       # Number of committed integer instructions. (Count)
system.cpu0.commit.functionCalls               790616                       # Number of function calls committed. (Count)
system.cpu0.commit.committedInstType_0::No_OpClass         1177      0.00%      0.00% # Class of committed instruction (Count)
system.cpu0.commit.committedInstType_0::IntAlu     57527718     44.37%     44.37% # Class of committed instruction (Count)
system.cpu0.commit.committedInstType_0::IntMult      1326089      1.02%     45.39% # Class of committed instruction (Count)
system.cpu0.commit.committedInstType_0::IntDiv      2111229      1.63%     47.02% # Class of committed instruction (Count)
system.cpu0.commit.committedInstType_0::FloatAdd     11677376      9.01%     56.03% # Class of committed instruction (Count)
system.cpu0.commit.committedInstType_0::FloatCmp           11      0.00%     56.03% # Class of committed instruction (Count)
system.cpu0.commit.committedInstType_0::FloatCvt       262162      0.20%     56.23% # Class of committed instruction (Count)
system.cpu0.commit.committedInstType_0::FloatMult     11415744      8.80%     65.04% # Class of committed instruction (Count)
system.cpu0.commit.committedInstType_0::FloatMultAcc            0      0.00%     65.04% # Class of committed instruction (Count)
system.cpu0.commit.committedInstType_0::FloatDiv       291776      0.23%     65.26% # Class of committed instruction (Count)
system.cpu0.commit.committedInstType_0::FloatMisc       729029      0.56%     65.82% # Class of committed instruction (Count)
system.cpu0.commit.committedInstType_0::FloatSqrt            1      0.00%     65.82% # Class of committed instruction (Count)
system.cpu0.commit.committedInstType_0::SimdAdd            0      0.00%     65.82% # Class of committed instruction (Count)
system.cpu0.commit.committedInstType_0::SimdAddAcc            0      0.00%     65.82% # Class of committed instruction (Count)
system.cpu0.commit.committedInstType_0::SimdAlu            0      0.00%     65.82% # Class of committed instruction (Count)
system.cpu0.commit.committedInstType_0::SimdCmp            0      0.00%     65.82% # Class of committed instruction (Count)
system.cpu0.commit.committedInstType_0::SimdCvt            0      0.00%     65.82% # Class of committed instruction (Count)
system.cpu0.commit.committedInstType_0::SimdMisc            0      0.00%     65.82% # Class of committed instruction (Count)
system.cpu0.commit.committedInstType_0::SimdMult            0      0.00%     65.82% # Class of committed instruction (Count)
system.cpu0.commit.committedInstType_0::SimdMultAcc            0      0.00%     65.82% # Class of committed instruction (Count)
system.cpu0.commit.committedInstType_0::SimdShift            0      0.00%     65.82% # Class of committed instruction (Count)
system.cpu0.commit.committedInstType_0::SimdShiftAcc            0      0.00%     65.82% # Class of committed instruction (Count)
system.cpu0.commit.committedInstType_0::SimdDiv            0      0.00%     65.82% # Class of committed instruction (Count)
system.cpu0.commit.committedInstType_0::SimdSqrt            0      0.00%     65.82% # Class of committed instruction (Count)
system.cpu0.commit.committedInstType_0::SimdFloatAdd            0      0.00%     65.82% # Class of committed instruction (Count)
system.cpu0.commit.committedInstType_0::SimdFloatAlu            0      0.00%     65.82% # Class of committed instruction (Count)
system.cpu0.commit.committedInstType_0::SimdFloatCmp            0      0.00%     65.82% # Class of committed instruction (Count)
system.cpu0.commit.committedInstType_0::SimdFloatCvt            0      0.00%     65.82% # Class of committed instruction (Count)
system.cpu0.commit.committedInstType_0::SimdFloatDiv            0      0.00%     65.82% # Class of committed instruction (Count)
system.cpu0.commit.committedInstType_0::SimdFloatMisc            0      0.00%     65.82% # Class of committed instruction (Count)
system.cpu0.commit.committedInstType_0::SimdFloatMult            0      0.00%     65.82% # Class of committed instruction (Count)
system.cpu0.commit.committedInstType_0::SimdFloatMultAcc            0      0.00%     65.82% # Class of committed instruction (Count)
system.cpu0.commit.committedInstType_0::SimdFloatSqrt            0      0.00%     65.82% # Class of committed instruction (Count)
system.cpu0.commit.committedInstType_0::SimdReduceAdd            0      0.00%     65.82% # Class of committed instruction (Count)
system.cpu0.commit.committedInstType_0::SimdReduceAlu            0      0.00%     65.82% # Class of committed instruction (Count)
system.cpu0.commit.committedInstType_0::SimdReduceCmp            0      0.00%     65.82% # Class of committed instruction (Count)
system.cpu0.commit.committedInstType_0::SimdFloatReduceAdd            0      0.00%     65.82% # Class of committed instruction (Count)
system.cpu0.commit.committedInstType_0::SimdFloatReduceCmp            0      0.00%     65.82% # Class of committed instruction (Count)
system.cpu0.commit.committedInstType_0::SimdAes            0      0.00%     65.82% # Class of committed instruction (Count)
system.cpu0.commit.committedInstType_0::SimdAesMix            0      0.00%     65.82% # Class of committed instruction (Count)
system.cpu0.commit.committedInstType_0::SimdSha1Hash            0      0.00%     65.82% # Class of committed instruction (Count)
system.cpu0.commit.committedInstType_0::SimdSha1Hash2            0      0.00%     65.82% # Class of committed instruction (Count)
system.cpu0.commit.committedInstType_0::SimdSha256Hash            0      0.00%     65.82% # Class of committed instruction (Count)
system.cpu0.commit.committedInstType_0::SimdSha256Hash2            0      0.00%     65.82% # Class of committed instruction (Count)
system.cpu0.commit.committedInstType_0::SimdShaSigma2            0      0.00%     65.82% # Class of committed instruction (Count)
system.cpu0.commit.committedInstType_0::SimdShaSigma3            0      0.00%     65.82% # Class of committed instruction (Count)
system.cpu0.commit.committedInstType_0::SimdPredAlu            0      0.00%     65.82% # Class of committed instruction (Count)
system.cpu0.commit.committedInstType_0::MemRead      6103181      4.71%     70.53% # Class of committed instruction (Count)
system.cpu0.commit.committedInstType_0::MemWrite      2123091      1.64%     72.17% # Class of committed instruction (Count)
system.cpu0.commit.committedInstType_0::FloatMemRead     24113934     18.60%     90.77% # Class of committed instruction (Count)
system.cpu0.commit.committedInstType_0::FloatMemWrite     11969695      9.23%    100.00% # Class of committed instruction (Count)
system.cpu0.commit.committedInstType_0::IprAccess            0      0.00%    100.00% # Class of committed instruction (Count)
system.cpu0.commit.committedInstType_0::InstPrefetch            0      0.00%    100.00% # Class of committed instruction (Count)
system.cpu0.commit.committedInstType_0::total    129652213                       # Class of committed instruction (Count)
system.cpu0.commit.commitEligibleSamples      2827133                       # number cycles where commit BW limit reached (Cycle)
system.cpu0.dcache.demandHits::cpu0.data     42431423                       # number of demand (read+write) hits (Count)
system.cpu0.dcache.demandHits::total         42431423                       # number of demand (read+write) hits (Count)
system.cpu0.dcache.overallHits::cpu0.data     42431423                       # number of overall hits (Count)
system.cpu0.dcache.overallHits::total        42431423                       # number of overall hits (Count)
system.cpu0.dcache.demandMisses::cpu0.data       376059                       # number of demand (read+write) misses (Count)
system.cpu0.dcache.demandMisses::total         376059                       # number of demand (read+write) misses (Count)
system.cpu0.dcache.overallMisses::cpu0.data       376059                       # number of overall misses (Count)
system.cpu0.dcache.overallMisses::total        376059                       # number of overall misses (Count)
system.cpu0.dcache.demandMissLatency::cpu0.data  11507126579                       # number of demand (read+write) miss ticks (Tick)
system.cpu0.dcache.demandMissLatency::total  11507126579                       # number of demand (read+write) miss ticks (Tick)
system.cpu0.dcache.overallMissLatency::cpu0.data  11507126579                       # number of overall miss ticks (Tick)
system.cpu0.dcache.overallMissLatency::total  11507126579                       # number of overall miss ticks (Tick)
system.cpu0.dcache.demandAccesses::cpu0.data     42807482                       # number of demand (read+write) accesses (Count)
system.cpu0.dcache.demandAccesses::total     42807482                       # number of demand (read+write) accesses (Count)
system.cpu0.dcache.overallAccesses::cpu0.data     42807482                       # number of overall (read+write) accesses (Count)
system.cpu0.dcache.overallAccesses::total     42807482                       # number of overall (read+write) accesses (Count)
system.cpu0.dcache.demandMissRate::cpu0.data     0.008785                       # miss rate for demand accesses (Ratio)
system.cpu0.dcache.demandMissRate::total     0.008785                       # miss rate for demand accesses (Ratio)
system.cpu0.dcache.overallMissRate::cpu0.data     0.008785                       # miss rate for overall accesses (Ratio)
system.cpu0.dcache.overallMissRate::total     0.008785                       # miss rate for overall accesses (Ratio)
system.cpu0.dcache.demandAvgMissLatency::cpu0.data 30599.258571                       # average overall miss latency in ticks ((Tick/Count))
system.cpu0.dcache.demandAvgMissLatency::total 30599.258571                       # average overall miss latency in ticks ((Tick/Count))
system.cpu0.dcache.overallAvgMissLatency::cpu0.data 30599.258571                       # average overall miss latency ((Tick/Count))
system.cpu0.dcache.overallAvgMissLatency::total 30599.258571                       # average overall miss latency ((Tick/Count))
system.cpu0.dcache.blockedCycles::no_mshrs        18246                       # number of cycles access was blocked (Cycle)
system.cpu0.dcache.blockedCycles::no_targets          354                       # number of cycles access was blocked (Cycle)
system.cpu0.dcache.blockedCauses::no_mshrs          342                       # number of times access was blocked (Count)
system.cpu0.dcache.blockedCauses::no_targets            2                       # number of times access was blocked (Count)
system.cpu0.dcache.avgBlocked::no_mshrs     53.350877                       # average number of cycles each access was blocked ((Cycle/Count))
system.cpu0.dcache.avgBlocked::no_targets          177                       # average number of cycles each access was blocked ((Cycle/Count))
system.cpu0.dcache.writebacks::writebacks       161405                       # number of writebacks (Count)
system.cpu0.dcache.writebacks::total           161405                       # number of writebacks (Count)
system.cpu0.dcache.demandMshrHits::cpu0.data       115969                       # number of demand (read+write) MSHR hits (Count)
system.cpu0.dcache.demandMshrHits::total       115969                       # number of demand (read+write) MSHR hits (Count)
system.cpu0.dcache.overallMshrHits::cpu0.data       115969                       # number of overall MSHR hits (Count)
system.cpu0.dcache.overallMshrHits::total       115969                       # number of overall MSHR hits (Count)
system.cpu0.dcache.demandMshrMisses::cpu0.data       260090                       # number of demand (read+write) MSHR misses (Count)
system.cpu0.dcache.demandMshrMisses::total       260090                       # number of demand (read+write) MSHR misses (Count)
system.cpu0.dcache.overallMshrMisses::cpu0.data       260090                       # number of overall MSHR misses (Count)
system.cpu0.dcache.overallMshrMisses::total       260090                       # number of overall MSHR misses (Count)
system.cpu0.dcache.demandMshrMissLatency::cpu0.data   5052408863                       # number of demand (read+write) MSHR miss ticks (Tick)
system.cpu0.dcache.demandMshrMissLatency::total   5052408863                       # number of demand (read+write) MSHR miss ticks (Tick)
system.cpu0.dcache.overallMshrMissLatency::cpu0.data   5052408863                       # number of overall MSHR miss ticks (Tick)
system.cpu0.dcache.overallMshrMissLatency::total   5052408863                       # number of overall MSHR miss ticks (Tick)
system.cpu0.dcache.demandMshrMissRate::cpu0.data     0.006076                       # mshr miss ratio for demand accesses (Ratio)
system.cpu0.dcache.demandMshrMissRate::total     0.006076                       # mshr miss ratio for demand accesses (Ratio)
system.cpu0.dcache.overallMshrMissRate::cpu0.data     0.006076                       # mshr miss ratio for overall accesses (Ratio)
system.cpu0.dcache.overallMshrMissRate::total     0.006076                       # mshr miss ratio for overall accesses (Ratio)
system.cpu0.dcache.demandAvgMshrMissLatency::cpu0.data 19425.617529                       # average overall mshr miss latency ((Tick/Count))
system.cpu0.dcache.demandAvgMshrMissLatency::total 19425.617529                       # average overall mshr miss latency ((Tick/Count))
system.cpu0.dcache.overallAvgMshrMissLatency::cpu0.data 19425.617529                       # average overall mshr miss latency ((Tick/Count))
system.cpu0.dcache.overallAvgMshrMissLatency::total 19425.617529                       # average overall mshr miss latency ((Tick/Count))
system.cpu0.dcache.replacements                254519                       # number of replacements (Count)
system.cpu0.dcache.LoadLockedReq.hits::cpu0.data          191                       # number of LoadLockedReq hits (Count)
system.cpu0.dcache.LoadLockedReq.hits::total          191                       # number of LoadLockedReq hits (Count)
system.cpu0.dcache.LoadLockedReq.misses::cpu0.data          299                       # number of LoadLockedReq misses (Count)
system.cpu0.dcache.LoadLockedReq.misses::total          299                       # number of LoadLockedReq misses (Count)
system.cpu0.dcache.LoadLockedReq.missLatency::cpu0.data      7987338                       # number of LoadLockedReq miss ticks (Tick)
system.cpu0.dcache.LoadLockedReq.missLatency::total      7987338                       # number of LoadLockedReq miss ticks (Tick)
system.cpu0.dcache.LoadLockedReq.accesses::cpu0.data          490                       # number of LoadLockedReq accesses(hits+misses) (Count)
system.cpu0.dcache.LoadLockedReq.accesses::total          490                       # number of LoadLockedReq accesses(hits+misses) (Count)
system.cpu0.dcache.LoadLockedReq.missRate::cpu0.data     0.610204                       # miss rate for LoadLockedReq accesses (Ratio)
system.cpu0.dcache.LoadLockedReq.missRate::total     0.610204                       # miss rate for LoadLockedReq accesses (Ratio)
system.cpu0.dcache.LoadLockedReq.avgMissLatency::cpu0.data 26713.505017                       # average LoadLockedReq miss latency ((Tick/Count))
system.cpu0.dcache.LoadLockedReq.avgMissLatency::total 26713.505017                       # average LoadLockedReq miss latency ((Tick/Count))
system.cpu0.dcache.LoadLockedReq.mshrHits::cpu0.data          156                       # number of LoadLockedReq MSHR hits (Count)
system.cpu0.dcache.LoadLockedReq.mshrHits::total          156                       # number of LoadLockedReq MSHR hits (Count)
system.cpu0.dcache.LoadLockedReq.mshrMisses::cpu0.data          143                       # number of LoadLockedReq MSHR misses (Count)
system.cpu0.dcache.LoadLockedReq.mshrMisses::total          143                       # number of LoadLockedReq MSHR misses (Count)
system.cpu0.dcache.LoadLockedReq.mshrMissLatency::cpu0.data      4471857                       # number of LoadLockedReq MSHR miss ticks (Tick)
system.cpu0.dcache.LoadLockedReq.mshrMissLatency::total      4471857                       # number of LoadLockedReq MSHR miss ticks (Tick)
system.cpu0.dcache.LoadLockedReq.mshrMissRate::cpu0.data     0.291837                       # mshr miss rate for LoadLockedReq accesses (Ratio)
system.cpu0.dcache.LoadLockedReq.mshrMissRate::total     0.291837                       # mshr miss rate for LoadLockedReq accesses (Ratio)
system.cpu0.dcache.LoadLockedReq.avgMshrMissLatency::cpu0.data 31271.727273                       # average LoadLockedReq mshr miss latency ((Tick/Count))
system.cpu0.dcache.LoadLockedReq.avgMshrMissLatency::total 31271.727273                       # average LoadLockedReq mshr miss latency ((Tick/Count))
system.cpu0.dcache.ReadReq.hits::cpu0.data     28481056                       # number of ReadReq hits (Count)
system.cpu0.dcache.ReadReq.hits::total       28481056                       # number of ReadReq hits (Count)
system.cpu0.dcache.ReadReq.misses::cpu0.data       234040                       # number of ReadReq misses (Count)
system.cpu0.dcache.ReadReq.misses::total       234040                       # number of ReadReq misses (Count)
system.cpu0.dcache.ReadReq.missLatency::cpu0.data   2411998254                       # number of ReadReq miss ticks (Tick)
system.cpu0.dcache.ReadReq.missLatency::total   2411998254                       # number of ReadReq miss ticks (Tick)
system.cpu0.dcache.ReadReq.accesses::cpu0.data     28715096                       # number of ReadReq accesses(hits+misses) (Count)
system.cpu0.dcache.ReadReq.accesses::total     28715096                       # number of ReadReq accesses(hits+misses) (Count)
system.cpu0.dcache.ReadReq.missRate::cpu0.data     0.008150                       # miss rate for ReadReq accesses (Ratio)
system.cpu0.dcache.ReadReq.missRate::total     0.008150                       # miss rate for ReadReq accesses (Ratio)
system.cpu0.dcache.ReadReq.avgMissLatency::cpu0.data 10305.923150                       # average ReadReq miss latency ((Tick/Count))
system.cpu0.dcache.ReadReq.avgMissLatency::total 10305.923150                       # average ReadReq miss latency ((Tick/Count))
system.cpu0.dcache.ReadReq.mshrHits::cpu0.data        11523                       # number of ReadReq MSHR hits (Count)
system.cpu0.dcache.ReadReq.mshrHits::total        11523                       # number of ReadReq MSHR hits (Count)
system.cpu0.dcache.ReadReq.mshrMisses::cpu0.data       222517                       # number of ReadReq MSHR misses (Count)
system.cpu0.dcache.ReadReq.mshrMisses::total       222517                       # number of ReadReq MSHR misses (Count)
system.cpu0.dcache.ReadReq.mshrMissLatency::cpu0.data   2090770803                       # number of ReadReq MSHR miss ticks (Tick)
system.cpu0.dcache.ReadReq.mshrMissLatency::total   2090770803                       # number of ReadReq MSHR miss ticks (Tick)
system.cpu0.dcache.ReadReq.mshrMissRate::cpu0.data     0.007749                       # mshr miss rate for ReadReq accesses (Ratio)
system.cpu0.dcache.ReadReq.mshrMissRate::total     0.007749                       # mshr miss rate for ReadReq accesses (Ratio)
system.cpu0.dcache.ReadReq.avgMshrMissLatency::cpu0.data  9396.004813                       # average ReadReq mshr miss latency ((Tick/Count))
system.cpu0.dcache.ReadReq.avgMshrMissLatency::total  9396.004813                       # average ReadReq mshr miss latency ((Tick/Count))
system.cpu0.dcache.StoreCondFailReq.missLatency::cpu0.data       894438                       # number of StoreCondFailReq miss ticks (Tick)
system.cpu0.dcache.StoreCondFailReq.missLatency::total       894438                       # number of StoreCondFailReq miss ticks (Tick)
system.cpu0.dcache.StoreCondFailReq.avgMissLatency::cpu0.data          inf                       # average StoreCondFailReq miss latency ((Tick/Count))
system.cpu0.dcache.StoreCondFailReq.avgMissLatency::total          inf                       # average StoreCondFailReq miss latency ((Tick/Count))
system.cpu0.dcache.StoreCondFailReq.mshrMissLatency::cpu0.data       879120                       # number of StoreCondFailReq MSHR miss ticks (Tick)
system.cpu0.dcache.StoreCondFailReq.mshrMissLatency::total       879120                       # number of StoreCondFailReq MSHR miss ticks (Tick)
system.cpu0.dcache.StoreCondFailReq.avgMshrMissLatency::cpu0.data          inf                       # average StoreCondFailReq mshr miss latency ((Tick/Count))
system.cpu0.dcache.StoreCondFailReq.avgMshrMissLatency::total          inf                       # average StoreCondFailReq mshr miss latency ((Tick/Count))
system.cpu0.dcache.StoreCondReq.hits::cpu0.data          173                       # number of StoreCondReq hits (Count)
system.cpu0.dcache.StoreCondReq.hits::total          173                       # number of StoreCondReq hits (Count)
system.cpu0.dcache.StoreCondReq.misses::cpu0.data          148                       # number of StoreCondReq misses (Count)
system.cpu0.dcache.StoreCondReq.misses::total          148                       # number of StoreCondReq misses (Count)
system.cpu0.dcache.StoreCondReq.missLatency::cpu0.data      3022641                       # number of StoreCondReq miss ticks (Tick)
system.cpu0.dcache.StoreCondReq.missLatency::total      3022641                       # number of StoreCondReq miss ticks (Tick)
system.cpu0.dcache.StoreCondReq.accesses::cpu0.data          321                       # number of StoreCondReq accesses(hits+misses) (Count)
system.cpu0.dcache.StoreCondReq.accesses::total          321                       # number of StoreCondReq accesses(hits+misses) (Count)
system.cpu0.dcache.StoreCondReq.missRate::cpu0.data     0.461059                       # miss rate for StoreCondReq accesses (Ratio)
system.cpu0.dcache.StoreCondReq.missRate::total     0.461059                       # miss rate for StoreCondReq accesses (Ratio)
system.cpu0.dcache.StoreCondReq.avgMissLatency::cpu0.data 20423.250000                       # average StoreCondReq miss latency ((Tick/Count))
system.cpu0.dcache.StoreCondReq.avgMissLatency::total 20423.250000                       # average StoreCondReq miss latency ((Tick/Count))
system.cpu0.dcache.StoreCondReq.mshrMisses::cpu0.data          148                       # number of StoreCondReq MSHR misses (Count)
system.cpu0.dcache.StoreCondReq.mshrMisses::total          148                       # number of StoreCondReq MSHR misses (Count)
system.cpu0.dcache.StoreCondReq.mshrMissLatency::cpu0.data      2939391                       # number of StoreCondReq MSHR miss ticks (Tick)
system.cpu0.dcache.StoreCondReq.mshrMissLatency::total      2939391                       # number of StoreCondReq MSHR miss ticks (Tick)
system.cpu0.dcache.StoreCondReq.mshrMissRate::cpu0.data     0.461059                       # mshr miss rate for StoreCondReq accesses (Ratio)
system.cpu0.dcache.StoreCondReq.mshrMissRate::total     0.461059                       # mshr miss rate for StoreCondReq accesses (Ratio)
system.cpu0.dcache.StoreCondReq.avgMshrMissLatency::cpu0.data 19860.750000                       # average StoreCondReq mshr miss latency ((Tick/Count))
system.cpu0.dcache.StoreCondReq.avgMshrMissLatency::total 19860.750000                       # average StoreCondReq mshr miss latency ((Tick/Count))
system.cpu0.dcache.SwapReq.hits::cpu0.data          406                       # number of SwapReq hits (Count)
system.cpu0.dcache.SwapReq.hits::total            406                       # number of SwapReq hits (Count)
system.cpu0.dcache.SwapReq.misses::cpu0.data          235                       # number of SwapReq misses (Count)
system.cpu0.dcache.SwapReq.misses::total          235                       # number of SwapReq misses (Count)
system.cpu0.dcache.SwapReq.missLatency::cpu0.data      8398260                       # number of SwapReq miss ticks (Tick)
system.cpu0.dcache.SwapReq.missLatency::total      8398260                       # number of SwapReq miss ticks (Tick)
system.cpu0.dcache.SwapReq.accesses::cpu0.data          641                       # number of SwapReq accesses(hits+misses) (Count)
system.cpu0.dcache.SwapReq.accesses::total          641                       # number of SwapReq accesses(hits+misses) (Count)
system.cpu0.dcache.SwapReq.missRate::cpu0.data     0.366615                       # miss rate for SwapReq accesses (Ratio)
system.cpu0.dcache.SwapReq.missRate::total     0.366615                       # miss rate for SwapReq accesses (Ratio)
system.cpu0.dcache.SwapReq.avgMissLatency::cpu0.data 35737.276596                       # average SwapReq miss latency ((Tick/Count))
system.cpu0.dcache.SwapReq.avgMissLatency::total 35737.276596                       # average SwapReq miss latency ((Tick/Count))
system.cpu0.dcache.SwapReq.mshrHits::cpu0.data           59                       # number of SwapReq MSHR hits (Count)
system.cpu0.dcache.SwapReq.mshrHits::total           59                       # number of SwapReq MSHR hits (Count)
system.cpu0.dcache.SwapReq.mshrMisses::cpu0.data          176                       # number of SwapReq MSHR misses (Count)
system.cpu0.dcache.SwapReq.mshrMisses::total          176                       # number of SwapReq MSHR misses (Count)
system.cpu0.dcache.SwapReq.mshrMissLatency::cpu0.data      8241750                       # number of SwapReq MSHR miss ticks (Tick)
system.cpu0.dcache.SwapReq.mshrMissLatency::total      8241750                       # number of SwapReq MSHR miss ticks (Tick)
system.cpu0.dcache.SwapReq.mshrMissRate::cpu0.data     0.274571                       # mshr miss rate for SwapReq accesses (Ratio)
system.cpu0.dcache.SwapReq.mshrMissRate::total     0.274571                       # mshr miss rate for SwapReq accesses (Ratio)
system.cpu0.dcache.SwapReq.avgMshrMissLatency::cpu0.data 46828.125000                       # average SwapReq mshr miss latency ((Tick/Count))
system.cpu0.dcache.SwapReq.avgMshrMissLatency::total 46828.125000                       # average SwapReq mshr miss latency ((Tick/Count))
system.cpu0.dcache.WriteReq.hits::cpu0.data     13950367                       # number of WriteReq hits (Count)
system.cpu0.dcache.WriteReq.hits::total      13950367                       # number of WriteReq hits (Count)
system.cpu0.dcache.WriteReq.misses::cpu0.data       142019                       # number of WriteReq misses (Count)
system.cpu0.dcache.WriteReq.misses::total       142019                       # number of WriteReq misses (Count)
system.cpu0.dcache.WriteReq.missLatency::cpu0.data   9095128325                       # number of WriteReq miss ticks (Tick)
system.cpu0.dcache.WriteReq.missLatency::total   9095128325                       # number of WriteReq miss ticks (Tick)
system.cpu0.dcache.WriteReq.accesses::cpu0.data     14092386                       # number of WriteReq accesses(hits+misses) (Count)
system.cpu0.dcache.WriteReq.accesses::total     14092386                       # number of WriteReq accesses(hits+misses) (Count)
system.cpu0.dcache.WriteReq.missRate::cpu0.data     0.010078                       # miss rate for WriteReq accesses (Ratio)
system.cpu0.dcache.WriteReq.missRate::total     0.010078                       # miss rate for WriteReq accesses (Ratio)
system.cpu0.dcache.WriteReq.avgMissLatency::cpu0.data 64041.630521                       # average WriteReq miss latency ((Tick/Count))
system.cpu0.dcache.WriteReq.avgMissLatency::total 64041.630521                       # average WriteReq miss latency ((Tick/Count))
system.cpu0.dcache.WriteReq.mshrHits::cpu0.data       104446                       # number of WriteReq MSHR hits (Count)
system.cpu0.dcache.WriteReq.mshrHits::total       104446                       # number of WriteReq MSHR hits (Count)
system.cpu0.dcache.WriteReq.mshrMisses::cpu0.data        37573                       # number of WriteReq MSHR misses (Count)
system.cpu0.dcache.WriteReq.mshrMisses::total        37573                       # number of WriteReq MSHR misses (Count)
system.cpu0.dcache.WriteReq.mshrMissLatency::cpu0.data   2961638060                       # number of WriteReq MSHR miss ticks (Tick)
system.cpu0.dcache.WriteReq.mshrMissLatency::total   2961638060                       # number of WriteReq MSHR miss ticks (Tick)
system.cpu0.dcache.WriteReq.mshrMissRate::cpu0.data     0.002666                       # mshr miss rate for WriteReq accesses (Ratio)
system.cpu0.dcache.WriteReq.mshrMissRate::total     0.002666                       # mshr miss rate for WriteReq accesses (Ratio)
system.cpu0.dcache.WriteReq.avgMshrMissLatency::cpu0.data 78823.571714                       # average WriteReq mshr miss latency ((Tick/Count))
system.cpu0.dcache.WriteReq.avgMshrMissLatency::total 78823.571714                       # average WriteReq mshr miss latency ((Tick/Count))
system.cpu0.dcache.power_state.pwrStateResidencyTicks::UNDEFINED  49528905183                       # Cumulative time (in ticks) in various power states (Tick)
system.cpu0.dcache.tags.tagsInUse          511.156257                       # Average ticks per tags in use ((Tick/Count))
system.cpu0.dcache.tags.totalRefs            42701565                       # Total number of references to valid blocks. (Count)
system.cpu0.dcache.tags.sampledRefs            256092                       # Sample count of references to valid blocks. (Count)
system.cpu0.dcache.tags.avgRefs            166.743065                       # Average number of references to valid blocks. ((Count/Count))
system.cpu0.dcache.tags.warmupTick             195138                       # The tick when the warmup percentage was hit. (Tick)
system.cpu0.dcache.tags.occupancies::cpu0.data   511.156257                       # Average occupied blocks per tick, per requestor ((Count/Tick))
system.cpu0.dcache.tags.avgOccs::cpu0.data     0.998352                       # Average percentage of cache occupancy ((Ratio/Tick))
system.cpu0.dcache.tags.avgOccs::total       0.998352                       # Average percentage of cache occupancy ((Ratio/Tick))
system.cpu0.dcache.tags.occupanciesTaskId::1024          504                       # Occupied blocks per task id (Count)
system.cpu0.dcache.tags.ageTaskId_1024::0           47                       # Occupied blocks per task id, per block age (Count)
system.cpu0.dcache.tags.ageTaskId_1024::1          183                       # Occupied blocks per task id, per block age (Count)
system.cpu0.dcache.tags.ageTaskId_1024::2          270                       # Occupied blocks per task id, per block age (Count)
system.cpu0.dcache.tags.ageTaskId_1024::4            4                       # Occupied blocks per task id, per block age (Count)
system.cpu0.dcache.tags.ratioOccsTaskId::1024     0.984375                       # Ratio of occupied blocks and all blocks, per task id (Ratio)
system.cpu0.dcache.tags.tagAccesses         342727564                       # Number of tag accesses (Count)
system.cpu0.dcache.tags.dataAccesses        342727564                       # Number of data accesses (Count)
system.cpu0.dcache.tags.power_state.pwrStateResidencyTicks::UNDEFINED  49528905183                       # Cumulative time (in ticks) in various power states (Tick)
system.cpu0.decode.idleCycles                 7291709                       # Number of cycles decode is idle (Cycle)
system.cpu0.decode.blockedCycles            114774544                       # Number of cycles decode is blocked (Cycle)
system.cpu0.decode.runCycles                  5090991                       # Number of cycles decode is running (Cycle)
system.cpu0.decode.unblockCycles             14280435                       # Number of cycles decode is unblocking (Cycle)
system.cpu0.decode.squashCycles                761239                       # Number of cycles decode is squashing (Cycle)
system.cpu0.decode.branchResolved            15681690                       # Number of times decode resolved a branch (Count)
system.cpu0.decode.branchMispred                  507                       # Number of times decode detected a branch misprediction (Count)
system.cpu0.decode.decodedInsts             141055860                       # Number of instructions handled by decode (Count)
system.cpu0.decode.squashedInsts                 1851                       # Number of squashed instructions handled by decode (Count)
system.cpu0.dtb_walker_cache.blockedCycles::no_mshrs            0                       # number of cycles access was blocked (Cycle)
system.cpu0.dtb_walker_cache.blockedCycles::no_targets            0                       # number of cycles access was blocked (Cycle)
system.cpu0.dtb_walker_cache.blockedCauses::no_mshrs            0                       # number of times access was blocked (Count)
system.cpu0.dtb_walker_cache.blockedCauses::no_targets            0                       # number of times access was blocked (Count)
system.cpu0.dtb_walker_cache.avgBlocked::no_mshrs          nan                       # average number of cycles each access was blocked ((Cycle/Count))
system.cpu0.dtb_walker_cache.avgBlocked::no_targets          nan                       # average number of cycles each access was blocked ((Cycle/Count))
system.cpu0.dtb_walker_cache.replacements            0                       # number of replacements (Count)
system.cpu0.dtb_walker_cache.power_state.pwrStateResidencyTicks::UNDEFINED  49528905183                       # Cumulative time (in ticks) in various power states (Tick)
system.cpu0.dtb_walker_cache.tags.tagsInUse            0                       # Average ticks per tags in use ((Tick/Count))
system.cpu0.dtb_walker_cache.tags.totalRefs            0                       # Total number of references to valid blocks. (Count)
system.cpu0.dtb_walker_cache.tags.sampledRefs            0                       # Sample count of references to valid blocks. (Count)
system.cpu0.dtb_walker_cache.tags.avgRefs          nan                       # Average number of references to valid blocks. ((Count/Count))
system.cpu0.dtb_walker_cache.tags.warmupTick            0                       # The tick when the warmup percentage was hit. (Tick)
system.cpu0.dtb_walker_cache.tags.tagAccesses            0                       # Number of tag accesses (Count)
system.cpu0.dtb_walker_cache.tags.dataAccesses            0                       # Number of data accesses (Count)
system.cpu0.dtb_walker_cache.tags.power_state.pwrStateResidencyTicks::UNDEFINED  49528905183                       # Cumulative time (in ticks) in various power states (Tick)
system.cpu0.fetch.icacheStallCycles           5284537                       # Number of cycles fetch is stalled on an Icache miss (Cycle)
system.cpu0.fetch.insts                     170809901                       # Number of instructions fetch has processed (Count)
system.cpu0.fetch.branches                   22659995                       # Number of branches that fetch encountered (Count)
system.cpu0.fetch.predictedBranches          20169782                       # Number of branches that fetch has predicted taken (Count)
system.cpu0.fetch.cycles                    136152350                       # Number of cycles fetch has run and was not squashing or blocked (Cycle)
system.cpu0.fetch.squashCycles                1523464                       # Number of cycles fetch has spent squashing (Cycle)
system.cpu0.fetch.miscStallCycles                 146                       # Number of cycles fetch has spent waiting on interrupts, or bad addresses, or out of MSHRs (Cycle)
system.cpu0.fetch.pendingTrapStallCycles           40                       # Number of stall cycles due to pending traps (Cycle)
system.cpu0.fetch.icacheWaitRetryStallCycles          113                       # Number of stall cycles due to full MSHR (Cycle)
system.cpu0.fetch.cacheLines                  5210576                       # Number of cache lines fetched (Count)
system.cpu0.fetch.icacheSquashes                 4977                       # Number of outstanding Icache misses that were squashed (Count)
system.cpu0.fetch.nisnDist::samples         142198918                       # Number of instructions fetched each cycle (Total) (Count)
system.cpu0.fetch.nisnDist::mean             1.201212                       # Number of instructions fetched each cycle (Total) (Count)
system.cpu0.fetch.nisnDist::stdev            2.743522                       # Number of instructions fetched each cycle (Total) (Count)
system.cpu0.fetch.nisnDist::underflows              0      0.00%      0.00% # Number of instructions fetched each cycle (Total) (Count)
system.cpu0.fetch.nisnDist::0               116721480     82.08%     82.08% # Number of instructions fetched each cycle (Total) (Count)
system.cpu0.fetch.nisnDist::1                 1970892      1.39%     83.47% # Number of instructions fetched each cycle (Total) (Count)
system.cpu0.fetch.nisnDist::2                  480695      0.34%     83.81% # Number of instructions fetched each cycle (Total) (Count)
system.cpu0.fetch.nisnDist::3                  937516      0.66%     84.47% # Number of instructions fetched each cycle (Total) (Count)
system.cpu0.fetch.nisnDist::4                  900220      0.63%     85.10% # Number of instructions fetched each cycle (Total) (Count)
system.cpu0.fetch.nisnDist::5                 1823799      1.28%     86.38% # Number of instructions fetched each cycle (Total) (Count)
system.cpu0.fetch.nisnDist::6                 1187758      0.84%     87.22% # Number of instructions fetched each cycle (Total) (Count)
system.cpu0.fetch.nisnDist::7                  192659      0.14%     87.35% # Number of instructions fetched each cycle (Total) (Count)
system.cpu0.fetch.nisnDist::8                17983899     12.65%    100.00% # Number of instructions fetched each cycle (Total) (Count)
system.cpu0.fetch.nisnDist::overflows               0      0.00%    100.00% # Number of instructions fetched each cycle (Total) (Count)
system.cpu0.fetch.nisnDist::min_value               0                       # Number of instructions fetched each cycle (Total) (Count)
system.cpu0.fetch.nisnDist::max_value               8                       # Number of instructions fetched each cycle (Total) (Count)
system.cpu0.fetch.nisnDist::total           142198918                       # Number of instructions fetched each cycle (Total) (Count)
system.cpu0.fetch.branchRate                 0.159253                       # Number of branch fetches per cycle (Ratio)
system.cpu0.fetch.rate                       1.200438                       # Number of inst fetches per cycle ((Count/Cycle))
system.cpu0.icache.demandHits::cpu0.inst      5209569                       # number of demand (read+write) hits (Count)
system.cpu0.icache.demandHits::total          5209569                       # number of demand (read+write) hits (Count)
system.cpu0.icache.overallHits::cpu0.inst      5209569                       # number of overall hits (Count)
system.cpu0.icache.overallHits::total         5209569                       # number of overall hits (Count)
system.cpu0.icache.demandMisses::cpu0.inst         1006                       # number of demand (read+write) misses (Count)
system.cpu0.icache.demandMisses::total           1006                       # number of demand (read+write) misses (Count)
system.cpu0.icache.overallMisses::cpu0.inst         1006                       # number of overall misses (Count)
system.cpu0.icache.overallMisses::total          1006                       # number of overall misses (Count)
system.cpu0.icache.demandMissLatency::cpu0.inst     78829756                       # number of demand (read+write) miss ticks (Tick)
system.cpu0.icache.demandMissLatency::total     78829756                       # number of demand (read+write) miss ticks (Tick)
system.cpu0.icache.overallMissLatency::cpu0.inst     78829756                       # number of overall miss ticks (Tick)
system.cpu0.icache.overallMissLatency::total     78829756                       # number of overall miss ticks (Tick)
system.cpu0.icache.demandAccesses::cpu0.inst      5210575                       # number of demand (read+write) accesses (Count)
system.cpu0.icache.demandAccesses::total      5210575                       # number of demand (read+write) accesses (Count)
system.cpu0.icache.overallAccesses::cpu0.inst      5210575                       # number of overall (read+write) accesses (Count)
system.cpu0.icache.overallAccesses::total      5210575                       # number of overall (read+write) accesses (Count)
system.cpu0.icache.demandMissRate::cpu0.inst     0.000193                       # miss rate for demand accesses (Ratio)
system.cpu0.icache.demandMissRate::total     0.000193                       # miss rate for demand accesses (Ratio)
system.cpu0.icache.overallMissRate::cpu0.inst     0.000193                       # miss rate for overall accesses (Ratio)
system.cpu0.icache.overallMissRate::total     0.000193                       # miss rate for overall accesses (Ratio)
system.cpu0.icache.demandAvgMissLatency::cpu0.inst 78359.598410                       # average overall miss latency in ticks ((Tick/Count))
system.cpu0.icache.demandAvgMissLatency::total 78359.598410                       # average overall miss latency in ticks ((Tick/Count))
system.cpu0.icache.overallAvgMissLatency::cpu0.inst 78359.598410                       # average overall miss latency ((Tick/Count))
system.cpu0.icache.overallAvgMissLatency::total 78359.598410                       # average overall miss latency ((Tick/Count))
system.cpu0.icache.blockedCycles::no_mshrs         2459                       # number of cycles access was blocked (Cycle)
system.cpu0.icache.blockedCycles::no_targets            0                       # number of cycles access was blocked (Cycle)
system.cpu0.icache.blockedCauses::no_mshrs           12                       # number of times access was blocked (Count)
system.cpu0.icache.blockedCauses::no_targets            0                       # number of times access was blocked (Count)
system.cpu0.icache.avgBlocked::no_mshrs    204.916667                       # average number of cycles each access was blocked ((Cycle/Count))
system.cpu0.icache.avgBlocked::no_targets          nan                       # average number of cycles each access was blocked ((Cycle/Count))
system.cpu0.icache.writebacks::writebacks          212                       # number of writebacks (Count)
system.cpu0.icache.writebacks::total              212                       # number of writebacks (Count)
system.cpu0.icache.demandMshrHits::cpu0.inst          292                       # number of demand (read+write) MSHR hits (Count)
system.cpu0.icache.demandMshrHits::total          292                       # number of demand (read+write) MSHR hits (Count)
system.cpu0.icache.overallMshrHits::cpu0.inst          292                       # number of overall MSHR hits (Count)
system.cpu0.icache.overallMshrHits::total          292                       # number of overall MSHR hits (Count)
system.cpu0.icache.demandMshrMisses::cpu0.inst          714                       # number of demand (read+write) MSHR misses (Count)
system.cpu0.icache.demandMshrMisses::total          714                       # number of demand (read+write) MSHR misses (Count)
system.cpu0.icache.overallMshrMisses::cpu0.inst          714                       # number of overall MSHR misses (Count)
system.cpu0.icache.overallMshrMisses::total          714                       # number of overall MSHR misses (Count)
system.cpu0.icache.demandMshrMissLatency::cpu0.inst     59159780                       # number of demand (read+write) MSHR miss ticks (Tick)
system.cpu0.icache.demandMshrMissLatency::total     59159780                       # number of demand (read+write) MSHR miss ticks (Tick)
system.cpu0.icache.overallMshrMissLatency::cpu0.inst     59159780                       # number of overall MSHR miss ticks (Tick)
system.cpu0.icache.overallMshrMissLatency::total     59159780                       # number of overall MSHR miss ticks (Tick)
system.cpu0.icache.demandMshrMissRate::cpu0.inst     0.000137                       # mshr miss ratio for demand accesses (Ratio)
system.cpu0.icache.demandMshrMissRate::total     0.000137                       # mshr miss ratio for demand accesses (Ratio)
system.cpu0.icache.overallMshrMissRate::cpu0.inst     0.000137                       # mshr miss ratio for overall accesses (Ratio)
system.cpu0.icache.overallMshrMissRate::total     0.000137                       # mshr miss ratio for overall accesses (Ratio)
system.cpu0.icache.demandAvgMshrMissLatency::cpu0.inst 82856.834734                       # average overall mshr miss latency ((Tick/Count))
system.cpu0.icache.demandAvgMshrMissLatency::total 82856.834734                       # average overall mshr miss latency ((Tick/Count))
system.cpu0.icache.overallAvgMshrMissLatency::cpu0.inst 82856.834734                       # average overall mshr miss latency ((Tick/Count))
system.cpu0.icache.overallAvgMshrMissLatency::total 82856.834734                       # average overall mshr miss latency ((Tick/Count))
system.cpu0.icache.replacements                   212                       # number of replacements (Count)
system.cpu0.icache.ReadReq.hits::cpu0.inst      5209569                       # number of ReadReq hits (Count)
system.cpu0.icache.ReadReq.hits::total        5209569                       # number of ReadReq hits (Count)
system.cpu0.icache.ReadReq.misses::cpu0.inst         1006                       # number of ReadReq misses (Count)
system.cpu0.icache.ReadReq.misses::total         1006                       # number of ReadReq misses (Count)
system.cpu0.icache.ReadReq.missLatency::cpu0.inst     78829756                       # number of ReadReq miss ticks (Tick)
system.cpu0.icache.ReadReq.missLatency::total     78829756                       # number of ReadReq miss ticks (Tick)
system.cpu0.icache.ReadReq.accesses::cpu0.inst      5210575                       # number of ReadReq accesses(hits+misses) (Count)
system.cpu0.icache.ReadReq.accesses::total      5210575                       # number of ReadReq accesses(hits+misses) (Count)
system.cpu0.icache.ReadReq.missRate::cpu0.inst     0.000193                       # miss rate for ReadReq accesses (Ratio)
system.cpu0.icache.ReadReq.missRate::total     0.000193                       # miss rate for ReadReq accesses (Ratio)
system.cpu0.icache.ReadReq.avgMissLatency::cpu0.inst 78359.598410                       # average ReadReq miss latency ((Tick/Count))
system.cpu0.icache.ReadReq.avgMissLatency::total 78359.598410                       # average ReadReq miss latency ((Tick/Count))
system.cpu0.icache.ReadReq.mshrHits::cpu0.inst          292                       # number of ReadReq MSHR hits (Count)
system.cpu0.icache.ReadReq.mshrHits::total          292                       # number of ReadReq MSHR hits (Count)
system.cpu0.icache.ReadReq.mshrMisses::cpu0.inst          714                       # number of ReadReq MSHR misses (Count)
system.cpu0.icache.ReadReq.mshrMisses::total          714                       # number of ReadReq MSHR misses (Count)
system.cpu0.icache.ReadReq.mshrMissLatency::cpu0.inst     59159780                       # number of ReadReq MSHR miss ticks (Tick)
system.cpu0.icache.ReadReq.mshrMissLatency::total     59159780                       # number of ReadReq MSHR miss ticks (Tick)
system.cpu0.icache.ReadReq.mshrMissRate::cpu0.inst     0.000137                       # mshr miss rate for ReadReq accesses (Ratio)
system.cpu0.icache.ReadReq.mshrMissRate::total     0.000137                       # mshr miss rate for ReadReq accesses (Ratio)
system.cpu0.icache.ReadReq.avgMshrMissLatency::cpu0.inst 82856.834734                       # average ReadReq mshr miss latency ((Tick/Count))
system.cpu0.icache.ReadReq.avgMshrMissLatency::total 82856.834734                       # average ReadReq mshr miss latency ((Tick/Count))
system.cpu0.icache.power_state.pwrStateResidencyTicks::UNDEFINED  49528905183                       # Cumulative time (in ticks) in various power states (Tick)
[...]
system.mem_ctrls.dram.writeRowHitRate             nan                       # Row buffer hit rate for writes (Ratio)
system.mem_ctrls.dram.bytesPerActivate::samples         8982                       # Bytes accessed per row activation (Byte)
system.mem_ctrls.dram.bytesPerActivate::mean   244.008016                       # Bytes accessed per row activation (Byte)
system.mem_ctrls.dram.bytesPerActivate::gmean   232.747917                       # Bytes accessed per row activation (Byte)
system.mem_ctrls.dram.bytesPerActivate::stdev    73.507847                       # Bytes accessed per row activation (Byte)
system.mem_ctrls.dram.bytesPerActivate::0-127          422      4.70%      4.70% # Bytes accessed per row activation (Byte)
system.mem_ctrls.dram.bytesPerActivate::128-255          738      8.22%     12.91% # Bytes accessed per row activation (Byte)
system.mem_ctrls.dram.bytesPerActivate::256-383         7730     86.06%     98.98% # Bytes accessed per row activation (Byte)
system.mem_ctrls.dram.bytesPerActivate::384-511           25      0.28%     99.25% # Bytes accessed per row activation (Byte)
system.mem_ctrls.dram.bytesPerActivate::512-639           13      0.14%     99.40% # Bytes accessed per row activation (Byte)
system.mem_ctrls.dram.bytesPerActivate::640-767           10      0.11%     99.51% # Bytes accessed per row activation (Byte)
system.mem_ctrls.dram.bytesPerActivate::768-895            4      0.04%     99.55% # Bytes accessed per row activation (Byte)
system.mem_ctrls.dram.bytesPerActivate::896-1023           10      0.11%     99.67% # Bytes accessed per row activation (Byte)
system.mem_ctrls.dram.bytesPerActivate::1024-1151           30      0.33%    100.00% # Bytes accessed per row activation (Byte)
system.mem_ctrls.dram.bytesPerActivate::total         8982                       # Bytes accessed per row activation (Byte)
system.mem_ctrls.dram.bytesRead               2191872                       # Total bytes read (Byte)
system.mem_ctrls.dram.bytesWritten                  0                       # Total bytes written (Byte)
system.mem_ctrls.dram.avgRdBW               44.254400                       # Average DRAM read bandwidth in MiBytes/s ((Byte/Second))
system.mem_ctrls.dram.avgWrBW                       0                       # Average DRAM write bandwidth in MiBytes/s ((Byte/Second))
system.mem_ctrls.dram.peakBW                 12800.00                       # Theoretical peak bandwidth in MiByte/s ((Byte/Second))
system.mem_ctrls.dram.busUtil                    0.35                       # Data bus utilization in percentage (Ratio)
system.mem_ctrls.dram.busUtilRead                0.35                       # Data bus utilization in percentage for reads (Ratio)
system.mem_ctrls.dram.busUtilWrite               0.00                       # Data bus utilization in percentage for writes (Ratio)
system.mem_ctrls.dram.pageHitRate               73.77                       # Row buffer hit rate, read and write combined (Ratio)
system.mem_ctrls.dram.power_state.pwrStateResidencyTicks::UNDEFINED  49528905183                       # Cumulative time (in ticks) in various power states (Tick)
system.mem_ctrls.dram.rank0.actEnergy        31972920                       # Energy for activate commands per rank (pJ) (Joule)
system.mem_ctrls.dram.rank0.preEnergy        16994010                       # Energy for precharge commands per rank (pJ) (Joule)
system.mem_ctrls.dram.rank0.readEnergy      122815140                       # Energy for read commands per rank (pJ) (Joule)
system.mem_ctrls.dram.rank0.writeEnergy             0                       # Energy for write commands per rank (pJ) (Joule)
system.mem_ctrls.dram.rank0.refreshEnergy 3909725040.000000                       # Energy for refresh commands per rank (pJ) (Joule)
system.mem_ctrls.dram.rank0.actBackEnergy   2676701190                       # Energy for active background per rank (pJ) (Joule)
system.mem_ctrls.dram.rank0.preBackEnergy  16765035840                       # Energy for precharge background per rank (pJ) (Joule)
system.mem_ctrls.dram.rank0.actPowerDownEnergy            0                       # Energy for active power-down per rank (pJ) (Joule)
system.mem_ctrls.dram.rank0.prePowerDownEnergy            0                       # Energy for precharge power-down per rank (pJ) (Joule)
system.mem_ctrls.dram.rank0.selfRefreshEnergy            0                       # Energy for self refresh per rank (pJ) (Joule)
system.mem_ctrls.dram.rank0.totalEnergy   23523244140                       # Total energy per rank (pJ) (Joule)
system.mem_ctrls.dram.rank0.averagePower   474.939716                       # Core power per rank (mW) (Watt)
system.mem_ctrls.dram.rank0.totalIdleTime            0                       # Total Idle time Per DRAM Rank (Tick)
system.mem_ctrls.dram.rank0.pwrStateTime::IDLE  43561641125                       # Time in different power states (Tick)
system.mem_ctrls.dram.rank0.pwrStateTime::REF   1653860000                       # Time in different power states (Tick)
system.mem_ctrls.dram.rank0.pwrStateTime::SREF            0                       # Time in different power states (Tick)
system.mem_ctrls.dram.rank0.pwrStateTime::PRE_PDN            0                       # Time in different power states (Tick)
system.mem_ctrls.dram.rank0.pwrStateTime::ACT   4313404058                       # Time in different power states (Tick)
system.mem_ctrls.dram.rank0.pwrStateTime::ACT_PDN            0                       # Time in different power states (Tick)
system.mem_ctrls.dram.rank1.actEnergy        32172840                       # Energy for activate commands per rank (pJ) (Joule)
system.mem_ctrls.dram.rank1.preEnergy        17092680                       # Energy for precharge commands per rank (pJ) (Joule)
system.mem_ctrls.dram.rank1.readEnergy      121715580                       # Energy for read commands per rank (pJ) (Joule)
system.mem_ctrls.dram.rank1.writeEnergy             0                       # Energy for write commands per rank (pJ) (Joule)
system.mem_ctrls.dram.rank1.refreshEnergy 3909725040.000000                       # Energy for refresh commands per rank (pJ) (Joule)
system.mem_ctrls.dram.rank1.actBackEnergy   2640258240                       # Energy for active background per rank (pJ) (Joule)
system.mem_ctrls.dram.rank1.preBackEnergy  16795724640                       # Energy for precharge background per rank (pJ) (Joule)
system.mem_ctrls.dram.rank1.actPowerDownEnergy            0                       # Energy for active power-down per rank (pJ) (Joule)
system.mem_ctrls.dram.rank1.prePowerDownEnergy            0                       # Energy for precharge power-down per rank (pJ) (Joule)
system.mem_ctrls.dram.rank1.selfRefreshEnergy            0                       # Energy for self refresh per rank (pJ) (Joule)
system.mem_ctrls.dram.rank1.totalEnergy   23516689020                       # Total energy per rank (pJ) (Joule)
system.mem_ctrls.dram.rank1.averagePower   474.807366                       # Core power per rank (mW) (Watt)
system.mem_ctrls.dram.rank1.totalIdleTime            0                       # Total Idle time Per DRAM Rank (Tick)
system.mem_ctrls.dram.rank1.pwrStateTime::IDLE  43641835046                       # Time in different power states (Tick)
system.mem_ctrls.dram.rank1.pwrStateTime::REF   1653860000                       # Time in different power states (Tick)
system.mem_ctrls.dram.rank1.pwrStateTime::SREF            0                       # Time in different power states (Tick)
system.mem_ctrls.dram.rank1.pwrStateTime::PRE_PDN            0                       # Time in different power states (Tick)
system.mem_ctrls.dram.rank1.pwrStateTime::ACT   4233210137                       # Time in different power states (Tick)
system.mem_ctrls.dram.rank1.pwrStateTime::ACT_PDN            0                       # Time in different power states (Tick)
system.mem_ctrls.power_state.pwrStateResidencyTicks::UNDEFINED  49528905183                       # Cumulative time (in ticks) in various power states (Tick)
system.membus.transDist::ReadResp                 924                       # Transaction distribution (Count)
system.membus.transDist::UpgradeReq             35555                       # Transaction distribution (Count)
system.membus.transDist::SCUpgradeReq             300                       # Transaction distribution (Count)
system.membus.transDist::ReadExReq              33540                       # Transaction distribution (Count)
system.membus.transDist::ReadExResp             33324                       # Transaction distribution (Count)
system.membus.transDist::ReadSharedReq            924                       # Transaction distribution (Count)
system.membus.transDist::InvalidateReq              4                       # Transaction distribution (Count)
system.membus.pktCount_system.l3.mem_side_port::system.mem_ctrls.port       104571                       # Packet count per connected requestor and responder (Count)
system.membus.pktCount::total                  104571                       # Packet count per connected requestor and responder (Count)
system.membus.pktSize_system.l3.mem_side_port::system.mem_ctrls.port      2191872                       # Cumulative packet size per connected requestor and responder (Byte)
system.membus.pktSize::total                  2191872                       # Cumulative packet size per connected requestor and responder (Byte)
system.membus.snoops                            36071                       # Total snoops (Count)
system.membus.snoopTraffic                          0                       # Total snoop traffic (Byte)
system.membus.snoopFanout::samples              70323                       # Request fanout histogram (Count)
system.membus.snoopFanout::mean                     0                       # Request fanout histogram (Count)
system.membus.snoopFanout::stdev                    0                       # Request fanout histogram (Count)
system.membus.snoopFanout::underflows               0      0.00%      0.00% # Request fanout histogram (Count)
system.membus.snoopFanout::0                    70323    100.00%    100.00% # Request fanout histogram (Count)
system.membus.snoopFanout::1                        0      0.00%    100.00% # Request fanout histogram (Count)
system.membus.snoopFanout::overflows                0      0.00%    100.00% # Request fanout histogram (Count)
system.membus.snoopFanout::min_value                0                       # Request fanout histogram (Count)
system.membus.snoopFanout::max_value                0                       # Request fanout histogram (Count)
system.membus.snoopFanout::total                70323                       # Request fanout histogram (Count)
system.membus.power_state.pwrStateResidencyTicks::UNDEFINED  49528905183                       # Cumulative time (in ticks) in various power states (Tick)
system.membus.reqLayer0.occupancy            45174070                       # Layer occupancy (ticks) (Tick)
system.membus.reqLayer0.utilization               0.0                       # Layer utilization (Ratio)
system.membus.respLayer1.occupancy          182049225                       # Layer occupancy (ticks) (Tick)
system.membus.respLayer1.utilization              0.0                       # Layer utilization (Ratio)
system.membus.snoop_filter.totRequests          70323                       # Total number of requests made to the snoop filter. (Count)
system.membus.snoop_filter.hitSingleRequests        36071                       # Number of requests hitting in the snoop filter with a single holder of the requested data. (Count)
system.membus.snoop_filter.hitMultiRequests            0                       # Number of requests hitting in the snoop filter with multiple (>1) holders of the requested data. (Count)
system.membus.snoop_filter.totSnoops                0                       # Total number of snoops made to the snoop filter. (Count)
system.membus.snoop_filter.hitSingleSnoops            0                       # Number of snoops hitting in the snoop filter with a single holder of the requested data. (Count)
system.membus.snoop_filter.hitMultiSnoops            0                       # Number of snoops hitting in the snoop filter with multiple (>1) holders of the requested data. (Count)
system.tol3bus.transDist::ReadResp              98385                       # Transaction distribution (Count)
system.tol3bus.transDist::ReadRespWithInvalidate            1                       # Transaction distribution (Count)
system.tol3bus.transDist::WritebackDirty         8655                       # Transaction distribution (Count)
system.tol3bus.transDist::CleanEvict              317                       # Transaction distribution (Count)
system.tol3bus.transDist::UpgradeReq            36732                       # Transaction distribution (Count)
system.tol3bus.transDist::SCUpgradeReq            436                       # Transaction distribution (Count)
system.tol3bus.transDist::UpgradeResp           37168                       # Transaction distribution (Count)
system.tol3bus.transDist::SCUpgradeFailReq           86                       # Transaction distribution (Count)
system.tol3bus.transDist::UpgradeFailResp           86                       # Transaction distribution (Count)
system.tol3bus.transDist::ReadExReq             33779                       # Transaction distribution (Count)
system.tol3bus.transDist::ReadExResp            33779                       # Transaction distribution (Count)
system.tol3bus.transDist::ReadSharedReq         98386                       # Transaction distribution (Count)
system.tol3bus.transDist::InvalidateReq             6                       # Transaction distribution (Count)
system.tol3bus.transDist::InvalidateResp            6                       # Transaction distribution (Count)
system.tol3bus.pktCount_system.cpu0.l2cache.mem_side_port::system.l3.cpu_side_port       102875                       # Packet count per connected requestor and responder (Count)
system.tol3bus.pktCount_system.cpu1.l2cache.mem_side_port::system.l3.cpu_side_port        39909                       # Packet count per connected requestor and responder (Count)
system.tol3bus.pktCount_system.cpu2.l2cache.mem_side_port::system.l3.cpu_side_port        42089                       # Packet count per connected requestor and responder (Count)
system.tol3bus.pktCount_system.cpu3.l2cache.mem_side_port::system.l3.cpu_side_port        37846                       # Packet count per connected requestor and responder (Count)
system.tol3bus.pktCount::total                 222719                       # Packet count per connected requestor and responder (Count)
system.tol3bus.pktSize_system.cpu0.l2cache.mem_side_port::system.l3.cpu_side_port      2825728                       # Cumulative packet size per connected requestor and responder (Byte)
system.tol3bus.pktSize_system.cpu1.l2cache.mem_side_port::system.l3.cpu_side_port       211648                       # Cumulative packet size per connected requestor and responder (Byte)
system.tol3bus.pktSize_system.cpu2.l2cache.mem_side_port::system.l3.cpu_side_port       217984                       # Cumulative packet size per connected requestor and responder (Byte)
system.tol3bus.pktSize_system.cpu3.l2cache.mem_side_port::system.l3.cpu_side_port        50752                       # Cumulative packet size per connected requestor and responder (Byte)
system.tol3bus.pktSize::total                 3306112                       # Cumulative packet size per connected requestor and responder (Byte)
system.tol3bus.snoops                          125103                       # Total snoops (Count)
system.tol3bus.snoopTraffic                   5711872                       # Total snoop traffic (Byte)
system.tol3bus.snoopFanout::samples            169425                       # Request fanout histogram (Count)
system.tol3bus.snoopFanout::mean             1.064601                       # Request fanout histogram (Count)
system.tol3bus.snoopFanout::stdev            0.876088                       # Request fanout histogram (Count)
system.tol3bus.snoopFanout::underflows              0      0.00%      0.00% # Request fanout histogram (Count)
system.tol3bus.snoopFanout::0                   42428     25.04%     25.04% # Request fanout histogram (Count)
system.tol3bus.snoopFanout::1                   91096     53.77%     78.81% # Request fanout histogram (Count)
system.tol3bus.snoopFanout::2                   18429     10.88%     89.69% # Request fanout histogram (Count)
system.tol3bus.snoopFanout::3                   17472     10.31%    100.00% # Request fanout histogram (Count)
system.tol3bus.snoopFanout::4                       0      0.00%    100.00% # Request fanout histogram (Count)
system.tol3bus.snoopFanout::overflows               0      0.00%    100.00% # Request fanout histogram (Count)
system.tol3bus.snoopFanout::min_value               0                       # Request fanout histogram (Count)
system.tol3bus.snoopFanout::max_value               3                       # Request fanout histogram (Count)
system.tol3bus.snoopFanout::total              169425                       # Request fanout histogram (Count)
system.tol3bus.power_state.pwrStateResidencyTicks::UNDEFINED  49528905183                       # Cumulative time (in ticks) in various power states (Tick)
system.tol3bus.reqLayer0.occupancy           65173095                       # Layer occupancy (ticks) (Tick)
system.tol3bus.reqLayer0.utilization              0.0                       # Layer utilization (Ratio)
system.tol3bus.respLayer0.occupancy          56137461                       # Layer occupancy (ticks) (Tick)
system.tol3bus.respLayer0.utilization             0.0                       # Layer utilization (Ratio)
system.tol3bus.respLayer1.occupancy          29137448                       # Layer occupancy (ticks) (Tick)
system.tol3bus.respLayer1.utilization             0.0                       # Layer utilization (Ratio)
system.tol3bus.respLayer2.occupancy          30318957                       # Layer occupancy (ticks) (Tick)
system.tol3bus.respLayer2.utilization             0.0                       # Layer utilization (Ratio)
system.tol3bus.respLayer3.occupancy          28940319                       # Layer occupancy (ticks) (Tick)
system.tol3bus.respLayer3.utilization             0.0                       # Layer utilization (Ratio)
system.tol3bus.snoop_filter.totRequests        178397                       # Total number of requests made to the snoop filter. (Count)
system.tol3bus.snoop_filter.hitSingleRequests        62163                       # Number of requests hitting in the snoop filter with a single holder of the requested data. (Count)
system.tol3bus.snoop_filter.hitMultiRequests        73806                       # Number of requests hitting in the snoop filter with multiple (>1) holders of the requested data. (Count)
system.tol3bus.snoop_filter.totSnoops               0                       # Total number of snoops made to the snoop filter. (Count)
system.tol3bus.snoop_filter.hitSingleSnoops            0                       # Number of snoops hitting in the snoop filter with a single holder of the requested data. (Count)
system.tol3bus.snoop_filter.hitMultiSnoops            0                       # Number of snoops hitting in the snoop filter with multiple (>1) holders of the requested data. (Count)
system.voltage_domain.voltage                       1                       # Voltage in Volts (Volt)
system.workload.inst.arm                            0                       # number of arm instructions executed (Count)
system.workload.inst.quiesce                        0                       # number of quiesce instructions executed (Count)

---------- End Simulation Statistics   ----------
