
---------- Begin Simulation Statistics ----------
simSeconds                                   0.010927                       # Number of seconds simulated (Second)
simTicks                                  10926760302                       # Number of ticks simulated (Tick)
finalTick                                 10926760302                       # Number of ticks from beginning of simulation (restored from checkpoints and never reset) (Tick)
simFreq                                  1000000000000                       # The number of ticks per simulated second ((Tick/Second))
hostSeconds                                    177.57                       # Real time elapsed on the host (Second)
hostTickRate                                 61534166                       # The number of ticks simulated per host second (ticks/s) ((Tick/Second))
hostMemory                                     777480                       # Number of bytes of host memory used (Byte)
simInsts                                     50703121                       # Number of instructions simulated (Count)
simOps                                       82718970                       # Number of ops (including micro ops) simulated (Count)
hostInstRate                                   285535                       # Simulator instruction rate (inst/s) ((Count/Second))
hostOpRate                                     465832                       # Simulator op (including micro ops) rate (op/s) ((Count/Second))
system.clk_domain.clock                          1000                       # Clock period in ticks (Tick)
system.cpu.numCycles                         32813095                       # Number of cpu cycles simulated (Cycle)
system.cpu.numWorkItemsStarted                      0                       # Number of work items this cpu started (Count)
system.cpu.numWorkItemsCompleted                    0                       # Number of work items this cpu completed (Count)
system.cpu.instsAdded                        84103347                       # Number of instructions added to the IQ (excludes non-spec) (Count)
system.cpu.nonSpecInstsAdded                      286                       # Number of non-speculative instructions added to the IQ (Count)
system.cpu.instsIssued                       83702398                       # Number of instructions issued (Count)
system.cpu.squashedInstsIssued                  12150                       # Number of squashed instructions issued (Count)
system.cpu.squashedInstsExamined              1384657                       # Number of squashed instructions iterated over during squash; mainly for profiling (Count)
system.cpu.squashedOperandsExamined           2457669                       # Number of squashed operands that are examined and possibly removed from graph (Count)
system.cpu.squashedNonSpecRemoved                 124                       # Number of squashed non-spec instructions that were removed (Count)
system.cpu.numIssuedDist::samples            32583254                       # Number of insts issued each cycle (Count)
system.cpu.numIssuedDist::mean               2.568878                       # Number of insts issued each cycle (Count)
system.cpu.numIssuedDist::stdev              2.642046                       # Number of insts issued each cycle (Count)
system.cpu.numIssuedDist::underflows                0      0.00%      0.00% # Number of insts issued each cycle (Count)
system.cpu.numIssuedDist::0                  13233181     40.61%     40.61% # Number of insts issued each cycle (Count)
system.cpu.numIssuedDist::1                   2310760      7.09%     47.71% # Number of insts issued each cycle (Count)
system.cpu.numIssuedDist::2                   1553868      4.77%     52.47% # Number of insts issued each cycle (Count)
system.cpu.numIssuedDist::3                   3372031     10.35%     62.82% # Number of insts issued each cycle (Count)
system.cpu.numIssuedDist::4                   3088538      9.48%     72.30% # Number of insts issued each cycle (Count)
system.cpu.numIssuedDist::5                   2462509      7.56%     79.86% # Number of insts issued each cycle (Count)
system.cpu.numIssuedDist::6                   3793832     11.64%     91.50% # Number of insts issued each cycle (Count)
system.cpu.numIssuedDist::7                   1410160      4.33%     95.83% # Number of insts issued each cycle (Count)
system.cpu.numIssuedDist::8                   1358375      4.17%    100.00% # Number of insts issued each cycle (Count)
system.cpu.numIssuedDist::overflows                 0      0.00%    100.00% # Number of insts issued each cycle (Count)
system.cpu.numIssuedDist::min_value                 0                       # Number of insts issued each cycle (Count)
system.cpu.numIssuedDist::max_value                 8                       # Number of insts issued each cycle (Count)
system.cpu.numIssuedDist::total              32583254                       # Number of insts issued each cycle (Count)
system.cpu.statFuBusy::No_OpClass                   0      0.00%      0.00% # attempts to use FU when none available (Count)
system.cpu.statFuBusy::IntAlu                  749413     89.68%     89.68% # attempts to use FU when none available (Count)
system.cpu.statFuBusy::IntMult                      0      0.00%     89.68% # attempts to use FU when none available (Count)
system.cpu.statFuBusy::IntDiv                       0      0.00%     89.68% # attempts to use FU when none available (Count)
system.cpu.statFuBusy::FloatAdd                     0      0.00%     89.68% # attempts to use FU when none available (Count)
system.cpu.statFuBusy::FloatCmp                     0      0.00%     89.68% # attempts to use FU when none available (Count)
system.cpu.statFuBusy::FloatCvt                     0      0.00%     89.68% # attempts to use FU when none available (Count)
system.cpu.statFuBusy::FloatMult                    0      0.00%     89.68% # attempts to use FU when none available (Count)
system.cpu.statFuBusy::FloatMultAcc                 0      0.00%     89.68% # attempts to use FU when none available (Count)
system.cpu.statFuBusy::FloatDiv                     0      0.00%     89.68% # attempts to use FU when none available (Count)
system.cpu.statFuBusy::FloatMisc                    0      0.00%     89.68% # attempts to use FU when none available (Count)
system.cpu.statFuBusy::FloatSqrt                    0      0.00%     89.68% # attempts to use FU when none available (Count)
system.cpu.statFuBusy::SimdAdd                      1      0.00%     89.68% # attempts to use FU when none available (Count)
system.cpu.statFuBusy::SimdAddAcc                   0      0.00%     89.68% # attempts to use FU when none available (Count)
system.cpu.statFuBusy::SimdAlu                  18875      2.26%     91.94% # attempts to use FU when none available (Count)
system.cpu.statFuBusy::SimdCmp                      0      0.00%     91.94% # attempts to use FU when none available (Count)
system.cpu.statFuBusy::SimdCvt                    117      0.01%     91.95% # attempts to use FU when none available (Count)
system.cpu.statFuBusy::SimdMisc                    24      0.00%     91.95% # attempts to use FU when none available (Count)
system.cpu.statFuBusy::SimdMult                     0      0.00%     91.95% # attempts to use FU when none available (Count)
system.cpu.statFuBusy::SimdMultAcc                  0      0.00%     91.95% # attempts to use FU when none available (Count)
system.cpu.statFuBusy::SimdShift                   23      0.00%     91.96% # attempts to use FU when none available (Count)
system.cpu.statFuBusy::SimdShiftAcc                 0      0.00%     91.96% # attempts to use FU when none available (Count)
system.cpu.statFuBusy::SimdDiv                      0      0.00%     91.96% # attempts to use FU when none available (Count)
system.cpu.statFuBusy::SimdSqrt                     0      0.00%     91.96% # attempts to use FU when none available (Count)
system.cpu.statFuBusy::SimdFloatAdd              1598      0.19%     92.15% # attempts to use FU when none available (Count)
system.cpu.statFuBusy::SimdFloatAlu                 0      0.00%     92.15% # attempts to use FU when none available (Count)
system.cpu.statFuBusy::SimdFloatCmp                 0      0.00%     92.15% # attempts to use FU when none available (Count)
system.cpu.statFuBusy::SimdFloatCvt              8394      1.00%     93.15% # attempts to use FU when none available (Count)
system.cpu.statFuBusy::SimdFloatDiv                 0      0.00%     93.15% # attempts to use FU when none available (Count)
system.cpu.statFuBusy::SimdFloatMisc                0      0.00%     93.15% # attempts to use FU when none available (Count)
system.cpu.statFuBusy::SimdFloatMult            49105      5.88%     99.03% # attempts to use FU when none available (Count)
system.cpu.statFuBusy::SimdFloatMultAcc             0      0.00%     99.03% # attempts to use FU when none available (Count)
system.cpu.statFuBusy::SimdFloatSqrt                0      0.00%     99.03% # attempts to use FU when none available (Count)
system.cpu.statFuBusy::SimdReduceAdd                0      0.00%     99.03% # attempts to use FU when none available (Count)
system.cpu.statFuBusy::SimdReduceAlu                0      0.00%     99.03% # attempts to use FU when none available (Count)
system.cpu.statFuBusy::SimdReduceCmp                0      0.00%     99.03% # attempts to use FU when none available (Count)
system.cpu.statFuBusy::SimdFloatReduceAdd            0      0.00%     99.03% # attempts to use FU when none available (Count)
system.cpu.statFuBusy::SimdFloatReduceCmp            0      0.00%     99.03% # attempts to use FU when none available (Count)
system.cpu.statFuBusy::SimdAes                      0      0.00%     99.03% # attempts to use FU when none available (Count)
system.cpu.statFuBusy::SimdAesMix                   0      0.00%     99.03% # attempts to use FU when none available (Count)
system.cpu.statFuBusy::SimdSha1Hash                 0      0.00%     99.03% # attempts to use FU when none available (Count)
system.cpu.statFuBusy::SimdSha1Hash2                0      0.00%     99.03% # attempts to use FU when none available (Count)
system.cpu.statFuBusy::SimdSha256Hash               0      0.00%     99.03% # attempts to use FU when none available (Count)
system.cpu.statFuBusy::SimdSha256Hash2              0      0.00%     99.03% # attempts to use FU when none available (Count)
system.cpu.statFuBusy::SimdShaSigma2                0      0.00%     99.03% # attempts to use FU when none available (Count)
system.cpu.statFuBusy::SimdShaSigma3                0      0.00%     99.03% # attempts to use FU when none available (Count)
system.cpu.statFuBusy::SimdPredAlu                  0      0.00%     99.03% # attempts to use FU when none available (Count)
system.cpu.statFuBusy::MemRead                   1399      0.17%     99.20% # attempts to use FU when none available (Count)
system.cpu.statFuBusy::MemWrite                   708      0.08%     99.28% # attempts to use FU when none available (Count)
system.cpu.statFuBusy::FloatMemRead              5290      0.63%     99.91% # attempts to use FU when none available (Count)
system.cpu.statFuBusy::FloatMemWrite              719      0.09%    100.00% # attempts to use FU when none available (Count)
system.cpu.statFuBusy::IprAccess                    0      0.00%    100.00% # attempts to use FU when none available (Count)
system.cpu.statFuBusy::InstPrefetch                 0      0.00%    100.00% # attempts to use FU when none available (Count)
system.cpu.statIssuedInstType_0::No_OpClass       951753      1.14%      1.14% # Number of instructions issued per FU type, per thread (Count)
system.cpu.statIssuedInstType_0::IntAlu      50072507     59.82%     60.96% # Number of instructions issued per FU type, per thread (Count)
system.cpu.statIssuedInstType_0::IntMult       132249      0.16%     61.12% # Number of instructions issued per FU type, per thread (Count)
system.cpu.statIssuedInstType_0::IntDiv         31335      0.04%     61.15% # Number of instructions issued per FU type, per thread (Count)
system.cpu.statIssuedInstType_0::FloatAdd      5620456      6.71%     67.87% # Number of instructions issued per FU type, per thread (Count)
system.cpu.statIssuedInstType_0::FloatCmp            0      0.00%     67.87% # Number of instructions issued per FU type, per thread (Count)
system.cpu.statIssuedInstType_0::FloatCvt           96      0.00%     67.87% # Number of instructions issued per FU type, per thread (Count)
system.cpu.statIssuedInstType_0::FloatMult            0      0.00%     67.87% # Number of instructions issued per FU type, per thread (Count)
system.cpu.statIssuedInstType_0::FloatMultAcc            0      0.00%     67.87% # Number of instructions issued per FU type, per thread (Count)
system.cpu.statIssuedInstType_0::FloatDiv            0      0.00%     67.87% # Number of instructions issued per FU type, per thread (Count)
system.cpu.statIssuedInstType_0::FloatMisc            0      0.00%     67.87% # Number of instructions issued per FU type, per thread (Count)
system.cpu.statIssuedInstType_0::FloatSqrt            0      0.00%     67.87% # Number of instructions issued per FU type, per thread (Count)
system.cpu.statIssuedInstType_0::SimdAdd         1373      0.00%     67.87% # Number of instructions issued per FU type, per thread (Count)
system.cpu.statIssuedInstType_0::SimdAddAcc            0      0.00%     67.87% # Number of instructions issued per FU type, per thread (Count)
system.cpu.statIssuedInstType_0::SimdAlu      1539097      1.84%     69.71% # Number of instructions issued per FU type, per thread (Count)
system.cpu.statIssuedInstType_0::SimdCmp            6      0.00%     69.71% # Number of instructions issued per FU type, per thread (Count)
system.cpu.statIssuedInstType_0::SimdCvt         3872      0.00%     69.71% # Number of instructions issued per FU type, per thread (Count)
system.cpu.statIssuedInstType_0::SimdMisc       478996      0.57%     70.29% # Number of instructions issued per FU type, per thread (Count)
system.cpu.statIssuedInstType_0::SimdMult            0      0.00%     70.29% # Number of instructions issued per FU type, per thread (Count)
system.cpu.statIssuedInstType_0::SimdMultAcc            0      0.00%     70.29% # Number of instructions issued per FU type, per thread (Count)
system.cpu.statIssuedInstType_0::SimdShift         1330      0.00%     70.29% # Number of instructions issued per FU type, per thread (Count)
system.cpu.statIssuedInstType_0::SimdShiftAcc            0      0.00%     70.29% # Number of instructions issued per FU type, per thread (Count)
system.cpu.statIssuedInstType_0::SimdDiv            0      0.00%     70.29% # Number of instructions issued per FU type, per thread (Count)
system.cpu.statIssuedInstType_0::SimdSqrt            0      0.00%     70.29% # Number of instructions issued per FU type, per thread (Count)
system.cpu.statIssuedInstType_0::SimdFloatAdd      5075734      6.06%     76.35% # Number of instructions issued per FU type, per thread (Count)
system.cpu.statIssuedInstType_0::SimdFloatAlu            0      0.00%     76.35% # Number of instructions issued per FU type, per thread (Count)
system.cpu.statIssuedInstType_0::SimdFloatCmp            0      0.00%     76.35% # Number of instructions issued per FU type, per thread (Count)
system.cpu.statIssuedInstType_0::SimdFloatCvt       381987      0.46%     76.81% # Number of instructions issued per FU type, per thread (Count)
system.cpu.statIssuedInstType_0::SimdFloatDiv        66063      0.08%     76.89% # Number of instructions issued per FU type, per thread (Count)
system.cpu.statIssuedInstType_0::SimdFloatMisc            0      0.00%     76.89% # Number of instructions issued per FU type, per thread (Count)
system.cpu.statIssuedInstType_0::SimdFloatMult      4490551      5.36%     82.25% # Number of instructions issued per FU type, per thread (Count)
system.cpu.statIssuedInstType_0::SimdFloatMultAcc            0      0.00%     82.25% # Number of instructions issued per FU type, per thread (Count)
system.cpu.statIssuedInstType_0::SimdFloatSqrt            0      0.00%     82.25% # Number of instructions issued per FU type, per thread (Count)
system.cpu.statIssuedInstType_0::SimdReduceAdd            0      0.00%     82.25% # Number of instructions issued per FU type, per thread (Count)
system.cpu.statIssuedInstType_0::SimdReduceAlu            0      0.00%     82.25% # Number of instructions issued per FU type, per thread (Count)
system.cpu.statIssuedInstType_0::SimdReduceCmp            0      0.00%     82.25% # Number of instructions issued per FU type, per thread (Count)
system.cpu.statIssuedInstType_0::SimdFloatReduceAdd            0      0.00%     82.25% # Number of instructions issued per FU type, per thread (Count)
system.cpu.statIssuedInstType_0::SimdFloatReduceCmp            0      0.00%     82.25% # Number of instructions issued per FU type, per thread (Count)
system.cpu.statIssuedInstType_0::SimdAes            0      0.00%     82.25% # Number of instructions issued per FU type, per thread (Count)
system.cpu.statIssuedInstType_0::SimdAesMix            0      0.00%     82.25% # Number of instructions issued per FU type, per thread (Count)
system.cpu.statIssuedInstType_0::SimdSha1Hash            0      0.00%     82.25% # Number of instructions issued per FU type, per thread (Count)
system.cpu.statIssuedInstType_0::SimdSha1Hash2            0      0.00%     82.25% # Number of instructions issued per FU type, per thread (Count)
system.cpu.statIssuedInstType_0::SimdSha256Hash            0      0.00%     82.25% # Number of instructions issued per FU type, per thread (Count)
system.cpu.statIssuedInstType_0::SimdSha256Hash2            0      0.00%     82.25% # Number of instructions issued per FU type, per thread (Count)
system.cpu.statIssuedInstType_0::SimdShaSigma2            0      0.00%     82.25% # Number of instructions issued per FU type, per thread (Count)
system.cpu.statIssuedInstType_0::SimdShaSigma3            0      0.00%     82.25% # Number of instructions issued per FU type, per thread (Count)
system.cpu.statIssuedInstType_0::SimdPredAlu            0      0.00%     82.25% # Number of instructions issued per FU type, per thread (Count)
system.cpu.statIssuedInstType_0::MemRead      3219771      3.85%     86.10% # Number of instructions issued per FU type, per thread (Count)
system.cpu.statIssuedInstType_0::MemWrite      1620882      1.94%     88.04% # Number of instructions issued per FU type, per thread (Count)
system.cpu.statIssuedInstType_0::FloatMemRead      6331443      7.56%     95.60% # Number of instructions issued per FU type, per thread (Count)
system.cpu.statIssuedInstType_0::FloatMemWrite      3682897      4.40%    100.00% # Number of instructions issued per FU type, per thread (Count)
system.cpu.statIssuedInstType_0::IprAccess            0      0.00%    100.00% # Number of instructions issued per FU type, per thread (Count)
system.cpu.statIssuedInstType_0::InstPrefetch            0      0.00%    100.00% # Number of instructions issued per FU type, per thread (Count)
system.cpu.statIssuedInstType_0::total       83702398                       # Number of instructions issued per FU type, per thread (Count)
system.cpu.issueRate                         2.550884                       # Inst issue rate ((Count/Cycle))
system.cpu.fuBusy                              835666                       # FU busy when requested (Count)
system.cpu.fuBusyRate                        0.009984                       # FU busy rate (busy events/executed inst) ((Count/Count))
system.cpu.intInstQueueReads                132475859                       # Number of integer instruction queue reads (Count)
system.cpu.intInstQueueWrites                51028948                       # Number of integer instruction queue writes (Count)
system.cpu.intInstQueueWakeupAccesses        49485261                       # Number of integer instruction queue wakeup accesses (Count)
system.cpu.fpInstQueueReads                  68360007                       # Number of floating instruction queue reads (Count)
system.cpu.fpInstQueueWrites                 34459617                       # Number of floating instruction queue writes (Count)
system.cpu.fpInstQueueWakeupAccesses         34039486                       # Number of floating instruction queue wakeup accesses (Count)
system.cpu.vecInstQueueReads                        0                       # Number of vector instruction queue reads (Count)
system.cpu.vecInstQueueWrites                       0                       # Number of vector instruction queue writes (Count)
system.cpu.vecInstQueueWakeupAccesses               0                       # Number of vector instruction queue wakeup accesses (Count)
system.cpu.intAluAccesses                    49361926                       # Number of integer alu accesses (Count)
system.cpu.fpAluAccesses                     34224385                       # Number of floating point alu accesses (Count)
system.cpu.vecAluAccesses                           0                       # Number of vector alu accesses (Count)
system.cpu.numInsts                          83549218                       # Number of executed instructions (Count)
system.cpu.numLoadInsts                       9512355                       # Number of load instructions executed (Count)
system.cpu.numSquashedInsts                    153180                       # Number of squashed instructions skipped in execute (Count)
system.cpu.numSwp                                   0                       # Number of swp insts executed (Count)
system.cpu.numNop                                   0                       # Number of nop insts executed (Count)
system.cpu.numRefs                           14806432                       # Number of memory reference insts executed (Count)
system.cpu.numBranches                        4933107                       # Number of branches executed (Count)
system.cpu.numStoreInsts                      5294077                       # Number of stores executed (Count)
system.cpu.numRate                           2.546216                       # Inst execution rate ((Count/Cycle))
system.cpu.timesIdled                            1202                       # Number of times that the entire CPU went into an idle state and unscheduled itself (Count)
system.cpu.idleCycles                          229841                       # Total number of cycles that the CPU has spent unscheduled due to idling (Cycle)
system.cpu.committedInsts                    50703121                       # Number of Instructions Simulated (Count)
system.cpu.committedOps                      82718970                       # Number of Ops (including micro ops) Simulated (Count)
system.cpu.cpi                               0.647161                       # CPI: Cycles Per Instruction ((Cycle/Count))
system.cpu.totalCpi                          0.647161                       # CPI: Total CPI of All Threads ((Cycle/Count))
system.cpu.ipc                               1.545210                       # IPC: Instructions Per Cycle ((Count/Cycle))
system.cpu.totalIpc                          1.545210                       # IPC: Total IPC of All Threads ((Count/Cycle))
system.cpu.intRegfileReads                   81521474                       # Number of integer regfile reads (Count)
system.cpu.intRegfileWrites                  38680267                       # Number of integer regfile writes (Count)
system.cpu.fpRegfileReads                    49860290                       # Number of floating regfile reads (Count)
system.cpu.fpRegfileWrites                   30087922                       # Number of floating regfile writes (Count)
system.cpu.ccRegfileReads                    26332266                       # number of cc regfile reads (Count)
system.cpu.ccRegfileWrites                   27456667                       # number of cc regfile writes (Count)
system.cpu.miscRegfileReads                  25711847                       # number of misc regfile reads (Count)
system.cpu.miscRegfileWrites                       54                       # number of misc regfile writes (Count)
system.cpu.MemDepUnit__0.insertedLoads        9570123                       # Number of loads inserted to the mem dependence unit. (Count)
system.cpu.MemDepUnit__0.insertedStores       5334888                       # Number of stores inserted to the mem dependence unit. (Count)
system.cpu.MemDepUnit__0.conflictingLoads       707917                       # Number of conflicting loads. (Count)
system.cpu.MemDepUnit__0.conflictingStores       148516                       # Number of conflicting stores. (Count)
system.cpu.MemDepUnit__1.insertedLoads              0                       # Number of loads inserted to the mem dependence unit. (Count)
system.cpu.MemDepUnit__1.insertedStores             0                       # Number of stores inserted to the mem dependence unit. (Count)
system.cpu.MemDepUnit__1.conflictingLoads            0                       # Number of conflicting loads. (Count)
system.cpu.MemDepUnit__1.conflictingStores            0                       # Number of conflicting stores. (Count)
system.cpu.MemDepUnit__2.insertedLoads              0                       # Number of loads inserted to the mem dependence unit. (Count)
system.cpu.MemDepUnit__2.insertedStores             0                       # Number of stores inserted to the mem dependence unit. (Count)
system.cpu.MemDepUnit__2.conflictingLoads            0                       # Number of conflicting loads. (Count)
system.cpu.MemDepUnit__2.conflictingStores            0                       # Number of conflicting stores. (Count)
system.cpu.MemDepUnit__3.insertedLoads              0                       # Number of loads inserted to the mem dependence unit. (Count)
system.cpu.MemDepUnit__3.insertedStores             0                       # Number of stores inserted to the mem dependence unit. (Count)
system.cpu.MemDepUnit__3.conflictingLoads            0                       # Number of conflicting loads. (Count)
system.cpu.MemDepUnit__3.conflictingStores            0                       # Number of conflicting stores. (Count)
system.cpu.branchPred.lookups                 5050019                       # Number of BP lookups (Count)
system.cpu.branchPred.condPredicted           3809071                       # Number of conditional branches predicted (Count)
system.cpu.branchPred.condIncorrect             40222                       # Number of conditional branches incorrect (Count)
system.cpu.branchPred.BTBLookups              2921727                       # Number of BTB lookups (Count)
system.cpu.branchPred.BTBHits                 2918827                       # Number of BTB hits (Count)
system.cpu.branchPred.BTBHitRatio            0.999007                       # BTB Hit Ratio (Ratio)
system.cpu.branchPred.RASUsed                  464602                       # Number of times the RAS was used to get a target. (Count)
system.cpu.branchPred.RASIncorrect                  8                       # Number of incorrect RAS predictions. (Count)
system.cpu.branchPred.indirectLookups          202006                       # Number of indirect predictor lookups. (Count)
system.cpu.branchPred.indirectHits             198941                       # Number of indirect target hits. (Count)
system.cpu.branchPred.indirectMisses             3065                       # Number of indirect misses. (Count)
system.cpu.branchPred.indirectMispredicted          702                       # Number of mispredicted indirect branches. (Count)
system.cpu.commit.commitSquashedInsts         1353236                       # The number of squashed insts skipped by commit (Count)
system.cpu.commit.commitNonSpecStalls             162                       # The number of times commit has been forced to stall to communicate backwards (Count)
system.cpu.commit.branchMispredicts             39900                       # The number of times a branch was mispredicted (Count)
system.cpu.commit.numCommittedDist::samples     32394674                       # Number of insts commited each cycle (Count)
system.cpu.commit.numCommittedDist::mean     2.553474                       # Number of insts commited each cycle (Count)
system.cpu.commit.numCommittedDist::stdev     3.074920                       # Number of insts commited each cycle (Count)
system.cpu.commit.numCommittedDist::underflows            0      0.00%      0.00% # Number of insts commited each cycle (Count)
system.cpu.commit.numCommittedDist::0        14025181     43.29%     43.29% # Number of insts commited each cycle (Count)
system.cpu.commit.numCommittedDist::1         2793181      8.62%     51.92% # Number of insts commited each cycle (Count)
system.cpu.commit.numCommittedDist::2         4103818     12.67%     64.59% # Number of insts commited each cycle (Count)
system.cpu.commit.numCommittedDist::3         2279407      7.04%     71.62% # Number of insts commited each cycle (Count)
system.cpu.commit.numCommittedDist::4         1068570      3.30%     74.92% # Number of insts commited each cycle (Count)
system.cpu.commit.numCommittedDist::5          823604      2.54%     77.46% # Number of insts commited each cycle (Count)
system.cpu.commit.numCommittedDist::6          821507      2.54%     80.00% # Number of insts commited each cycle (Count)
system.cpu.commit.numCommittedDist::7          276658      0.85%     80.85% # Number of insts commited each cycle (Count)
system.cpu.commit.numCommittedDist::8         6202748     19.15%    100.00% # Number of insts commited each cycle (Count)
system.cpu.commit.numCommittedDist::overflows            0      0.00%    100.00% # Number of insts commited each cycle (Count)
system.cpu.commit.numCommittedDist::min_value            0                       # Number of insts commited each cycle (Count)
system.cpu.commit.numCommittedDist::max_value            8                       # Number of insts commited each cycle (Count)
system.cpu.commit.numCommittedDist::total     32394674                       # Number of insts commited each cycle (Count)
system.cpu.commit.instsCommitted             50703121                       # Number of instructions committed (Count)
system.cpu.commit.opsCommitted               82718970                       # Number of ops (including micro ops) committed (Count)
system.cpu.commit.memRefs                    14712565                       # Number of memory references committed (Count)
system.cpu.commit.loads                       9440197                       # Number of loads committed (Count)
system.cpu.commit.amos                              0                       # Number of atomic instructions committed (Count)
system.cpu.commit.membars                          72                       # Number of memory barriers committed (Count)
system.cpu.commit.branches                    4880242                       # Number of branches committed (Count)
system.cpu.commit.vectorInstructions                0                       # Number of committed Vector instructions. (Count)
system.cpu.commit.floating                   33931397                       # Number of committed floating point instructions. (Count)
system.cpu.commit.integer                    58254083                       # Number of committed integer instructions. (Count)
system.cpu.commit.functionCalls                462226                       # Number of function calls committed. (Count)
system.cpu.commit.committedInstType_0::No_OpClass       927430      1.12%      1.12% # Class of committed instruction (Count)
system.cpu.commit.committedInstType_0::IntAlu     49356899     59.67%     60.79% # Class of committed instruction (Count)
system.cpu.commit.committedInstType_0::IntMult       131952      0.16%     60.95% # Class of committed instruction (Count)
system.cpu.commit.committedInstType_0::IntDiv        31126      0.04%     60.99% # Class of committed instruction (Count)
system.cpu.commit.committedInstType_0::FloatAdd      5543334      6.70%     67.69% # Class of committed instruction (Count)
system.cpu.commit.committedInstType_0::FloatCmp            0      0.00%     67.69% # Class of committed instruction (Count)
system.cpu.commit.committedInstType_0::FloatCvt           96      0.00%     67.69% # Class of committed instruction (Count)
system.cpu.commit.committedInstType_0::FloatMult            0      0.00%     67.69% # Class of committed instruction (Count)
system.cpu.commit.committedInstType_0::FloatMultAcc            0      0.00%     67.69% # Class of committed instruction (Count)
system.cpu.commit.committedInstType_0::FloatDiv            0      0.00%     67.69% # Class of committed instruction (Count)
system.cpu.commit.committedInstType_0::FloatMisc            0      0.00%     67.69% # Class of committed instruction (Count)
system.cpu.commit.committedInstType_0::FloatSqrt            0      0.00%     67.69% # Class of committed instruction (Count)
system.cpu.commit.committedInstType_0::SimdAdd          964      0.00%     67.69% # Class of committed instruction (Count)
system.cpu.commit.committedInstType_0::SimdAddAcc            0      0.00%     67.69% # Class of committed instruction (Count)
system.cpu.commit.committedInstType_0::SimdAlu      1524979      1.84%     69.53% # Class of committed instruction (Count)
system.cpu.commit.committedInstType_0::SimdCmp            6      0.00%     69.53% # Class of committed instruction (Count)
system.cpu.commit.committedInstType_0::SimdCvt         2544      0.00%     69.54% # Class of committed instruction (Count)
system.cpu.commit.committedInstType_0::SimdMisc       477436      0.58%     70.11% # Class of committed instruction (Count)
system.cpu.commit.committedInstType_0::SimdMult            0      0.00%     70.11% # Class of committed instruction (Count)
system.cpu.commit.committedInstType_0::SimdMultAcc            0      0.00%     70.11% # Class of committed instruction (Count)
system.cpu.commit.committedInstType_0::SimdShift          559      0.00%     70.11% # Class of committed instruction (Count)
system.cpu.commit.committedInstType_0::SimdShiftAcc            0      0.00%     70.11% # Class of committed instruction (Count)
system.cpu.commit.committedInstType_0::SimdDiv            0      0.00%     70.11% # Class of committed instruction (Count)
system.cpu.commit.committedInstType_0::SimdSqrt            0      0.00%     70.11% # Class of committed instruction (Count)
system.cpu.commit.committedInstType_0::SimdFloatAdd      5073941      6.13%     76.25% # Class of committed instruction (Count)
system.cpu.commit.committedInstType_0::SimdFloatAlu            0      0.00%     76.25% # Class of committed instruction (Count)
system.cpu.commit.committedInstType_0::SimdFloatCmp            0      0.00%     76.25% # Class of committed instruction (Count)
system.cpu.commit.committedInstType_0::SimdFloatCvt       381012      0.46%     76.71% # Class of committed instruction (Count)
system.cpu.commit.committedInstType_0::SimdFloatDiv        65794      0.08%     76.79% # Class of committed instruction (Count)
system.cpu.commit.committedInstType_0::SimdFloatMisc            0      0.00%     76.79% # Class of committed instruction (Count)
system.cpu.commit.committedInstType_0::SimdFloatMult      4488333      5.43%     82.21% # Class of committed instruction (Count)
system.cpu.commit.committedInstType_0::SimdFloatMultAcc            0      0.00%     82.21% # Class of committed instruction (Count)
system.cpu.commit.committedInstType_0::SimdFloatSqrt            0      0.00%     82.21% # Class of committed instruction (Count)
system.cpu.commit.committedInstType_0::SimdReduceAdd            0      0.00%     82.21% # Class of committed instruction (Count)
system.cpu.commit.committedInstType_0::SimdReduceAlu            0      0.00%     82.21% # Class of committed instruction (Count)
system.cpu.commit.committedInstType_0::SimdReduceCmp            0      0.00%     82.21% # Class of committed instruction (Count)
system.cpu.commit.committedInstType_0::SimdFloatReduceAdd            0      0.00%     82.21% # Class of committed instruction (Count)
system.cpu.commit.committedInstType_0::SimdFloatReduceCmp            0      0.00%     82.21% # Class of committed instruction (Count)
system.cpu.commit.committedInstType_0::SimdAes            0      0.00%     82.21% # Class of committed instruction (Count)
system.cpu.commit.committedInstType_0::SimdAesMix            0      0.00%     82.21% # Class of committed instruction (Count)
system.cpu.commit.committedInstType_0::SimdSha1Hash            0      0.00%     82.21% # Class of committed instruction (Count)
system.cpu.commit.committedInstType_0::SimdSha1Hash2            0      0.00%     82.21% # Class of committed instruction (Count)
system.cpu.commit.committedInstType_0::SimdSha256Hash            0      0.00%     82.21% # Class of committed instruction (Count)
system.cpu.commit.committedInstType_0::SimdSha256Hash2            0      0.00%     82.21% # Class of committed instruction (Count)
system.cpu.commit.committedInstType_0::SimdShaSigma2            0      0.00%     82.21% # Class of committed instruction (Count)
system.cpu.commit.committedInstType_0::SimdShaSigma3            0      0.00%     82.21% # Class of committed instruction (Count)
system.cpu.commit.committedInstType_0::SimdPredAlu            0      0.00%     82.21% # Class of committed instruction (Count)
system.cpu.commit.committedInstType_0::MemRead      3180746      3.85%     86.06% # Class of committed instruction (Count)
system.cpu.commit.committedInstType_0::MemWrite      1608244      1.94%     88.00% # Class of committed instruction (Count)
system.cpu.commit.committedInstType_0::FloatMemRead      6259451      7.57%     95.57% # Class of committed instruction (Count)
system.cpu.commit.committedInstType_0::FloatMemWrite      3664124      4.43%    100.00% # Class of committed instruction (Count)
system.cpu.commit.committedInstType_0::IprAccess            0      0.00%    100.00% # Class of committed instruction (Count)
system.cpu.commit.committedInstType_0::InstPrefetch            0      0.00%    100.00% # Class of committed instruction (Count)
system.cpu.commit.committedInstType_0::total     82718970                       # Class of committed instruction (Count)
system.cpu.commit.commitEligibleSamples       6202748                       # number cycles where commit BW limit reached (Cycle)
system.cpu.dcache.demandHits::cpu.data       12149792                       # number of demand (read+write) hits (Count)
system.cpu.dcache.demandHits::total          12149792                       # number of demand (read+write) hits (Count)
system.cpu.dcache.overallHits::cpu.data      12149792                       # number of overall hits (Count)
system.cpu.dcache.overallHits::total         12149792                       # number of overall hits (Count)
system.cpu.dcache.demandMisses::cpu.data       366598                       # number of demand (read+write) misses (Count)
system.cpu.dcache.demandMisses::total          366598                       # number of demand (read+write) misses (Count)
system.cpu.dcache.overallMisses::cpu.data       366598                       # number of overall misses (Count)
system.cpu.dcache.overallMisses::total         366598                       # number of overall misses (Count)
system.cpu.dcache.demandMissLatency::cpu.data   9684675954                       # number of demand (read+write) miss ticks (Tick)
system.cpu.dcache.demandMissLatency::total   9684675954                       # number of demand (read+write) miss ticks (Tick)
system.cpu.dcache.overallMissLatency::cpu.data   9684675954                       # number of overall miss ticks (Tick)
system.cpu.dcache.overallMissLatency::total   9684675954                       # number of overall miss ticks (Tick)
system.cpu.dcache.demandAccesses::cpu.data     12516390                       # number of demand (read+write) accesses (Count)
system.cpu.dcache.demandAccesses::total      12516390                       # number of demand (read+write) accesses (Count)
system.cpu.dcache.overallAccesses::cpu.data     12516390                       # number of overall (read+write) accesses (Count)
system.cpu.dcache.overallAccesses::total     12516390                       # number of overall (read+write) accesses (Count)
system.cpu.dcache.demandMissRate::cpu.data     0.029289                       # miss rate for demand accesses (Ratio)
system.cpu.dcache.demandMissRate::total      0.029289                       # miss rate for demand accesses (Ratio)
system.cpu.dcache.overallMissRate::cpu.data     0.029289                       # miss rate for overall accesses (Ratio)
system.cpu.dcache.overallMissRate::total     0.029289                       # miss rate for overall accesses (Ratio)
system.cpu.dcache.demandAvgMissLatency::cpu.data 26417.699917                       # average overall miss latency in ticks ((Tick/Count))
system.cpu.dcache.demandAvgMissLatency::total 26417.699917                       # average overall miss latency in ticks ((Tick/Count))
system.cpu.dcache.overallAvgMissLatency::cpu.data 26417.699917                       # average overall miss latency ((Tick/Count))
system.cpu.dcache.overallAvgMissLatency::total 26417.699917                       # average overall miss latency ((Tick/Count))
system.cpu.dcache.blockedCycles::no_mshrs        33501                       # number of cycles access was blocked (Cycle)
system.cpu.dcache.blockedCycles::no_targets            6                       # number of cycles access was blocked (Cycle)
system.cpu.dcache.blockedCauses::no_mshrs          767                       # number of times access was blocked (Count)
system.cpu.dcache.blockedCauses::no_targets            2                       # number of times access was blocked (Count)
system.cpu.dcache.avgBlocked::no_mshrs      43.677966                       # average number of cycles each access was blocked ((Cycle/Count))
system.cpu.dcache.avgBlocked::no_targets            3                       # average number of cycles each access was blocked ((Cycle/Count))
system.cpu.dcache.writebacks::writebacks       141468                       # number of writebacks (Count)
system.cpu.dcache.writebacks::total            141468                       # number of writebacks (Count)
system.cpu.dcache.demandMshrHits::cpu.data       175279                       # number of demand (read+write) MSHR hits (Count)
system.cpu.dcache.demandMshrHits::total        175279                       # number of demand (read+write) MSHR hits (Count)
system.cpu.dcache.overallMshrHits::cpu.data       175279                       # number of overall MSHR hits (Count)
system.cpu.dcache.overallMshrHits::total       175279                       # number of overall MSHR hits (Count)
system.cpu.dcache.demandMshrMisses::cpu.data       191319                       # number of demand (read+write) MSHR misses (Count)
system.cpu.dcache.demandMshrMisses::total       191319                       # number of demand (read+write) MSHR misses (Count)
system.cpu.dcache.overallMshrMisses::cpu.data       191319                       # number of overall MSHR misses (Count)
system.cpu.dcache.overallMshrMisses::total       191319                       # number of overall MSHR misses (Count)
system.cpu.dcache.demandMshrMissLatency::cpu.data   6772795416                       # number of demand (read+write) MSHR miss ticks (Tick)
system.cpu.dcache.demandMshrMissLatency::total   6772795416                       # number of demand (read+write) MSHR miss ticks (Tick)
system.cpu.dcache.overallMshrMissLatency::cpu.data   6772795416                       # number of overall MSHR miss ticks (Tick)
system.cpu.dcache.overallMshrMissLatency::total   6772795416                       # number of overall MSHR miss ticks (Tick)
system.cpu.dcache.demandMshrMissRate::cpu.data     0.015285                       # mshr miss ratio for demand accesses (Ratio)
system.cpu.dcache.demandMshrMissRate::total     0.015285                       # mshr miss ratio for demand accesses (Ratio)
system.cpu.dcache.overallMshrMissRate::cpu.data     0.015285                       # mshr miss ratio for overall accesses (Ratio)
system.cpu.dcache.overallMshrMissRate::total     0.015285                       # mshr miss ratio for overall accesses (Ratio)
system.cpu.dcache.demandAvgMshrMissLatency::cpu.data 35400.537406                       # average overall mshr miss latency ((Tick/Count))
system.cpu.dcache.demandAvgMshrMissLatency::total 35400.537406                       # average overall mshr miss latency ((Tick/Count))
system.cpu.dcache.overallAvgMshrMissLatency::cpu.data 35400.537406                       # average overall mshr miss latency ((Tick/Count))
system.cpu.dcache.overallAvgMshrMissLatency::total 35400.537406                       # average overall mshr miss latency ((Tick/Count))
system.cpu.dcache.replacements                 185627                       # number of replacements (Count)
system.cpu.dcache.LockedRMWReadReq.hits::cpu.data           30                       # number of LockedRMWReadReq hits (Count)
system.cpu.dcache.LockedRMWReadReq.hits::total           30                       # number of LockedRMWReadReq hits (Count)
system.cpu.dcache.LockedRMWReadReq.misses::cpu.data            6                       # number of LockedRMWReadReq misses (Count)
system.cpu.dcache.LockedRMWReadReq.misses::total            6                       # number of LockedRMWReadReq misses (Count)
system.cpu.dcache.LockedRMWReadReq.missLatency::cpu.data        51948                       # number of LockedRMWReadReq miss ticks (Tick)
system.cpu.dcache.LockedRMWReadReq.missLatency::total        51948                       # number of LockedRMWReadReq miss ticks (Tick)
system.cpu.dcache.LockedRMWReadReq.accesses::cpu.data           36                       # number of LockedRMWReadReq accesses(hits+misses) (Count)
system.cpu.dcache.LockedRMWReadReq.accesses::total           36                       # number of LockedRMWReadReq accesses(hits+misses) (Count)
system.cpu.dcache.LockedRMWReadReq.missRate::cpu.data     0.166667                       # miss rate for LockedRMWReadReq accesses (Ratio)
system.cpu.dcache.LockedRMWReadReq.missRate::total     0.166667                       # miss rate for LockedRMWReadReq accesses (Ratio)
system.cpu.dcache.LockedRMWReadReq.avgMissLatency::cpu.data         8658                       # average LockedRMWReadReq miss latency ((Tick/Count))
system.cpu.dcache.LockedRMWReadReq.avgMissLatency::total         8658                       # average LockedRMWReadReq miss latency ((Tick/Count))
system.cpu.dcache.LockedRMWReadReq.mshrMisses::cpu.data            6                       # number of LockedRMWReadReq MSHR misses (Count)
system.cpu.dcache.LockedRMWReadReq.mshrMisses::total            6                       # number of LockedRMWReadReq MSHR misses (Count)
system.cpu.dcache.LockedRMWReadReq.mshrMissLatency::cpu.data       193806                       # number of LockedRMWReadReq MSHR miss ticks (Tick)
system.cpu.dcache.LockedRMWReadReq.mshrMissLatency::total       193806                       # number of LockedRMWReadReq MSHR miss ticks (Tick)
system.cpu.dcache.LockedRMWReadReq.mshrMissRate::cpu.data     0.166667                       # mshr miss rate for LockedRMWReadReq accesses (Ratio)
system.cpu.dcache.LockedRMWReadReq.mshrMissRate::total     0.166667                       # mshr miss rate for LockedRMWReadReq accesses (Ratio)
system.cpu.dcache.LockedRMWReadReq.avgMshrMissLatency::cpu.data        32301                       # average LockedRMWReadReq mshr miss latency ((Tick/Count))
system.cpu.dcache.LockedRMWReadReq.avgMshrMissLatency::total        32301                       # average LockedRMWReadReq mshr miss latency ((Tick/Count))
system.cpu.dcache.LockedRMWWriteReq.hits::cpu.data           36                       # number of LockedRMWWriteReq hits (Count)
system.cpu.dcache.LockedRMWWriteReq.hits::total           36                       # number of LockedRMWWriteReq hits (Count)
system.cpu.dcache.LockedRMWWriteReq.accesses::cpu.data           36                       # number of LockedRMWWriteReq accesses(hits+misses) (Count)
system.cpu.dcache.LockedRMWWriteReq.accesses::total           36                       # number of LockedRMWWriteReq accesses(hits+misses) (Count)
system.cpu.dcache.ReadReq.hits::cpu.data      6966230                       # number of ReadReq hits (Count)
system.cpu.dcache.ReadReq.hits::total         6966230                       # number of ReadReq hits (Count)
system.cpu.dcache.ReadReq.misses::cpu.data       277804                       # number of ReadReq misses (Count)
system.cpu.dcache.ReadReq.misses::total        277804                       # number of ReadReq misses (Count)
system.cpu.dcache.ReadReq.missLatency::cpu.data   4522525614                       # number of ReadReq miss ticks (Tick)
system.cpu.dcache.ReadReq.missLatency::total   4522525614                       # number of ReadReq miss ticks (Tick)
system.cpu.dcache.ReadReq.accesses::cpu.data      7244034                       # number of ReadReq accesses(hits+misses) (Count)
system.cpu.dcache.ReadReq.accesses::total      7244034                       # number of ReadReq accesses(hits+misses) (Count)
system.cpu.dcache.ReadReq.missRate::cpu.data     0.038349                       # miss rate for ReadReq accesses (Ratio)
system.cpu.dcache.ReadReq.missRate::total     0.038349                       # miss rate for ReadReq accesses (Ratio)
system.cpu.dcache.ReadReq.avgMissLatency::cpu.data 16279.555420                       # average ReadReq miss latency ((Tick/Count))
system.cpu.dcache.ReadReq.avgMissLatency::total 16279.555420                       # average ReadReq miss latency ((Tick/Count))
system.cpu.dcache.ReadReq.mshrHits::cpu.data       175269                       # number of ReadReq MSHR hits (Count)
system.cpu.dcache.ReadReq.mshrHits::total       175269                       # number of ReadReq MSHR hits (Count)
system.cpu.dcache.ReadReq.mshrMisses::cpu.data       102535                       # number of ReadReq MSHR misses (Count)
system.cpu.dcache.ReadReq.mshrMisses::total       102535                       # number of ReadReq MSHR misses (Count)
system.cpu.dcache.ReadReq.mshrMissLatency::cpu.data   1670141520                       # number of ReadReq MSHR miss ticks (Tick)
system.cpu.dcache.ReadReq.mshrMissLatency::total   1670141520                       # number of ReadReq MSHR miss ticks (Tick)
system.cpu.dcache.ReadReq.mshrMissRate::cpu.data     0.014154                       # mshr miss rate for ReadReq accesses (Ratio)
system.cpu.dcache.ReadReq.mshrMissRate::total     0.014154                       # mshr miss rate for ReadReq accesses (Ratio)
system.cpu.dcache.ReadReq.avgMshrMissLatency::cpu.data 16288.501682                       # average ReadReq mshr miss latency ((Tick/Count))
system.cpu.dcache.ReadReq.avgMshrMissLatency::total 16288.501682                       # average ReadReq mshr miss latency ((Tick/Count))
system.cpu.dcache.WriteReq.hits::cpu.data      5183562                       # number of WriteReq hits (Count)
system.cpu.dcache.WriteReq.hits::total        5183562                       # number of WriteReq hits (Count)
system.cpu.dcache.WriteReq.misses::cpu.data        88794                       # number of WriteReq misses (Count)
system.cpu.dcache.WriteReq.misses::total        88794                       # number of WriteReq misses (Count)
system.cpu.dcache.WriteReq.missLatency::cpu.data   5162150340                       # number of WriteReq miss ticks (Tick)
system.cpu.dcache.WriteReq.missLatency::total   5162150340                       # number of WriteReq miss ticks (Tick)
system.cpu.dcache.WriteReq.accesses::cpu.data      5272356                       # number of WriteReq accesses(hits+misses) (Count)
system.cpu.dcache.WriteReq.accesses::total      5272356                       # number of WriteReq accesses(hits+misses) (Count)
system.cpu.dcache.WriteReq.missRate::cpu.data     0.016841                       # miss rate for WriteReq accesses (Ratio)
system.cpu.dcache.WriteReq.missRate::total     0.016841                       # miss rate for WriteReq accesses (Ratio)
system.cpu.dcache.WriteReq.avgMissLatency::cpu.data 58136.251774                       # average WriteReq miss latency ((Tick/Count))
system.cpu.dcache.WriteReq.avgMissLatency::total 58136.251774                       # average WriteReq miss latency ((Tick/Count))
system.cpu.dcache.WriteReq.mshrHits::cpu.data           10                       # number of WriteReq MSHR hits (Count)
system.cpu.dcache.WriteReq.mshrHits::total           10                       # number of WriteReq MSHR hits (Count)
system.cpu.dcache.WriteReq.mshrMisses::cpu.data        88784                       # number of WriteReq MSHR misses (Count)
system.cpu.dcache.WriteReq.mshrMisses::total        88784                       # number of WriteReq MSHR misses (Count)
system.cpu.dcache.WriteReq.mshrMissLatency::cpu.data   5102653896                       # number of WriteReq MSHR miss ticks (Tick)
system.cpu.dcache.WriteReq.mshrMissLatency::total   5102653896                       # number of WriteReq MSHR miss ticks (Tick)
system.cpu.dcache.WriteReq.mshrMissRate::cpu.data     0.016840                       # mshr miss rate for WriteReq accesses (Ratio)
system.cpu.dcache.WriteReq.mshrMissRate::total     0.016840                       # mshr miss rate for WriteReq accesses (Ratio)
system.cpu.dcache.WriteReq.avgMshrMissLatency::cpu.data 57472.674085                       # average WriteReq mshr miss latency ((Tick/Count))
system.cpu.dcache.WriteReq.avgMshrMissLatency::total 57472.674085                       # average WriteReq mshr miss latency ((Tick/Count))
system.cpu.dcache.power_state.pwrStateResidencyTicks::UNDEFINED  10926760302                       # Cumulative time (in ticks) in various power states (Tick)
system.cpu.dcache.tags.tagsInUse           510.578279                       # Average ticks per tags in use ((Tick/Count))
system.cpu.dcache.tags.totalRefs             12344192                       # Total number of references to valid blocks. (Count)
system.cpu.dcache.tags.sampledRefs             186139                       # Sample count of references to valid blocks. (Count)
system.cpu.dcache.tags.avgRefs              66.317064                       # Average number of references to valid blocks. ((Count/Count))
system.cpu.dcache.tags.warmupTick              189144                       # The tick when the warmup percentage was hit. (Tick)
system.cpu.dcache.tags.occupancies::cpu.data   510.578279                       # Average occupied blocks per tick, per requestor ((Count/Tick))
system.cpu.dcache.tags.avgOccs::cpu.data     0.997223                       # Average percentage of cache occupancy ((Ratio/Tick))
system.cpu.dcache.tags.avgOccs::total        0.997223                       # Average percentage of cache occupancy ((Ratio/Tick))
system.cpu.dcache.tags.occupanciesTaskId::1024          512                       # Occupied blocks per task id (Count)
system.cpu.dcache.tags.ageTaskId_1024::0           93                       # Occupied blocks per task id, per block age (Count)
system.cpu.dcache.tags.ageTaskId_1024::1          419                       # Occupied blocks per task id, per block age (Count)
system.cpu.dcache.tags.ratioOccsTaskId::1024            1                       # Ratio of occupied blocks and all blocks, per task id (Ratio)
system.cpu.dcache.tags.tagAccesses          100317835                       # Number of tag accesses (Count)
system.cpu.dcache.tags.dataAccesses         100317835                       # Number of data accesses (Count)
system.cpu.dcache.tags.power_state.pwrStateResidencyTicks::UNDEFINED  10926760302                       # Cumulative time (in ticks) in various power states (Tick)
system.cpu.decode.idleCycles                  5456828                       # Number of cycles decode is idle (Cycle)
system.cpu.decode.blockedCycles              13940362                       # Number of cycles decode is blocked (Cycle)
system.cpu.decode.runCycles                  12583192                       # Number of cycles decode is running (Cycle)
system.cpu.decode.unblockCycles                561673                       # Number of cycles decode is unblocking (Cycle)
system.cpu.decode.squashCycles                  41199                       # Number of cycles decode is squashing (Cycle)
system.cpu.decode.branchResolved              2907012                       # Number of times decode resolved a branch (Count)
system.cpu.decode.branchMispred                   888                       # Number of times decode detected a branch misprediction (Count)
system.cpu.decode.decodedInsts               84673999                       # Number of instructions handled by decode (Count)
system.cpu.decode.squashedInsts                  4334                       # Number of squashed instructions handled by decode (Count)
system.cpu.dtb_walker_cache.blockedCycles::no_mshrs            0                       # number of cycles access was blocked (Cycle)
system.cpu.dtb_walker_cache.blockedCycles::no_targets            0                       # number of cycles access was blocked (Cycle)
system.cpu.dtb_walker_cache.blockedCauses::no_mshrs            0                       # number of times access was blocked (Count)
system.cpu.dtb_walker_cache.blockedCauses::no_targets            0                       # number of times access was blocked (Count)
system.cpu.dtb_walker_cache.avgBlocked::no_mshrs          nan                       # average number of cycles each access was blocked ((Cycle/Count))
system.cpu.dtb_walker_cache.avgBlocked::no_targets          nan                       # average number of cycles each access was blocked ((Cycle/Count))
system.cpu.dtb_walker_cache.replacements            0                       # number of replacements (Count)
system.cpu.dtb_walker_cache.power_state.pwrStateResidencyTicks::UNDEFINED  10926760302                       # Cumulative time (in ticks) in various power states (Tick)
system.cpu.dtb_walker_cache.tags.tagsInUse            0                       # Average ticks per tags in use ((Tick/Count))
system.cpu.dtb_walker_cache.tags.totalRefs            0                       # Total number of references to valid blocks. (Count)
system.cpu.dtb_walker_cache.tags.sampledRefs            0                       # Sample count of references to valid blocks. (Count)
system.cpu.dtb_walker_cache.tags.avgRefs          nan                       # Average number of references to valid blocks. ((Count/Count))
system.cpu.dtb_walker_cache.tags.warmupTick            0                       # The tick when the warmup percentage was hit. (Tick)
system.cpu.dtb_walker_cache.tags.tagAccesses            0                       # Number of tag accesses (Count)
system.cpu.dtb_walker_cache.tags.dataAccesses            0                       # Number of data accesses (Count)
system.cpu.dtb_walker_cache.tags.power_state.pwrStateResidencyTicks::UNDEFINED  10926760302                       # Cumulative time (in ticks) in various power states (Tick)
system.cpu.fetch.icacheStallCycles            5221076                       # Number of cycles fetch is stalled on an Icache miss (Cycle)
system.cpu.fetch.insts                       52102675                       # Number of instructions fetch has processed (Count)
system.cpu.fetch.branches                     5050019                       # Number of branches that fetch encountered (Count)
system.cpu.fetch.predictedBranches            3582370                       # Number of branches that fetch has predicted taken (Count)
system.cpu.fetch.cycles                      27315082                       # Number of cycles fetch has run and was not squashing or blocked (Cycle)
system.cpu.fetch.squashCycles                   84148                       # Number of cycles fetch has spent squashing (Cycle)
system.cpu.fetch.miscStallCycles                  685                       # Number of cycles fetch has spent waiting on interrupts, or bad addresses, or out of MSHRs (Cycle)
system.cpu.fetch.pendingTrapStallCycles          4286                       # Number of stall cycles due to pending traps (Cycle)
system.cpu.fetch.icacheWaitRetryStallCycles           51                       # Number of stall cycles due to full MSHR (Cycle)
system.cpu.fetch.cacheLines                   5125902                       # Number of cache lines fetched (Count)
system.cpu.fetch.icacheSquashes                  3619                       # Number of outstanding Icache misses that were squashed (Count)
system.cpu.fetch.nisnDist::samples           32583254                       # Number of instructions fetched each cycle (Total) (Count)
system.cpu.fetch.nisnDist::mean              2.608762                       # Number of instructions fetched each cycle (Total) (Count)
system.cpu.fetch.nisnDist::stdev             3.447198                       # Number of instructions fetched each cycle (Total) (Count)
system.cpu.fetch.nisnDist::underflows               0      0.00%      0.00% # Number of instructions fetched each cycle (Total) (Count)
system.cpu.fetch.nisnDist::0                 18948934     58.16%     58.16% # Number of instructions fetched each cycle (Total) (Count)
system.cpu.fetch.nisnDist::1                  1033131      3.17%     61.33% # Number of instructions fetched each cycle (Total) (Count)
system.cpu.fetch.nisnDist::2                   438047      1.34%     62.67% # Number of instructions fetched each cycle (Total) (Count)
system.cpu.fetch.nisnDist::3                  1171334      3.59%     66.27% # Number of instructions fetched each cycle (Total) (Count)
system.cpu.fetch.nisnDist::4                   994096      3.05%     69.32% # Number of instructions fetched each cycle (Total) (Count)
system.cpu.fetch.nisnDist::5                   623395      1.91%     71.23% # Number of instructions fetched each cycle (Total) (Count)
system.cpu.fetch.nisnDist::6                   902814      2.77%     74.00% # Number of instructions fetched each cycle (Total) (Count)
system.cpu.fetch.nisnDist::7                   703525      2.16%     76.16% # Number of instructions fetched each cycle (Total) (Count)
system.cpu.fetch.nisnDist::8                  7767978     23.84%    100.00% # Number of instructions fetched each cycle (Total) (Count)
system.cpu.fetch.nisnDist::overflows                0      0.00%    100.00% # Number of instructions fetched each cycle (Total) (Count)
system.cpu.fetch.nisnDist::min_value                0                       # Number of instructions fetched each cycle (Total) (Count)
system.cpu.fetch.nisnDist::max_value                8                       # Number of instructions fetched each cycle (Total) (Count)
system.cpu.fetch.nisnDist::total             32583254                       # Number of instructions fetched each cycle (Total) (Count)
system.cpu.fetch.branchRate                  0.153903                       # Number of branch fetches per cycle (Ratio)
system.cpu.fetch.rate                        1.587862                       # Number of inst fetches per cycle ((Count/Cycle))
system.cpu.icache.demandHits::cpu.inst        5123545                       # number of demand (read+write) hits (Count)
system.cpu.icache.demandHits::total           5123545                       # number of demand (read+write) hits (Count)
system.cpu.icache.overallHits::cpu.inst       5123545                       # number of overall hits (Count)
system.cpu.icache.overallHits::total          5123545                       # number of overall hits (Count)
system.cpu.icache.demandMisses::cpu.inst         2356                       # number of demand (read+write) misses (Count)
system.cpu.icache.demandMisses::total            2356                       # number of demand (read+write) misses (Count)
system.cpu.icache.overallMisses::cpu.inst         2356                       # number of overall misses (Count)
system.cpu.icache.overallMisses::total           2356                       # number of overall misses (Count)
system.cpu.icache.demandMissLatency::cpu.inst    190280195                       # number of demand (read+write) miss ticks (Tick)
system.cpu.icache.demandMissLatency::total    190280195                       # number of demand (read+write) miss ticks (Tick)
system.cpu.icache.overallMissLatency::cpu.inst    190280195                       # number of overall miss ticks (Tick)
system.cpu.icache.overallMissLatency::total    190280195                       # number of overall miss ticks (Tick)
system.cpu.icache.demandAccesses::cpu.inst      5125901                       # number of demand (read+write) accesses (Count)
system.cpu.icache.demandAccesses::total       5125901                       # number of demand (read+write) accesses (Count)
system.cpu.icache.overallAccesses::cpu.inst      5125901                       # number of overall (read+write) accesses (Count)
system.cpu.icache.overallAccesses::total      5125901                       # number of overall (read+write) accesses (Count)
system.cpu.icache.demandMissRate::cpu.inst     0.000460                       # miss rate for demand accesses (Ratio)
system.cpu.icache.demandMissRate::total      0.000460                       # miss rate for demand accesses (Ratio)
system.cpu.icache.overallMissRate::cpu.inst     0.000460                       # miss rate for overall accesses (Ratio)
system.cpu.icache.overallMissRate::total     0.000460                       # miss rate for overall accesses (Ratio)
system.cpu.icache.demandAvgMissLatency::cpu.inst 80764.089559                       # average overall miss latency in ticks ((Tick/Count))
system.cpu.icache.demandAvgMissLatency::total 80764.089559                       # average overall miss latency in ticks ((Tick/Count))
system.cpu.icache.overallAvgMissLatency::cpu.inst 80764.089559                       # average overall miss latency ((Tick/Count))
system.cpu.icache.overallAvgMissLatency::total 80764.089559                       # average overall miss latency ((Tick/Count))
system.cpu.icache.blockedCycles::no_mshrs         1915                       # number of cycles access was blocked (Cycle)
system.cpu.icache.blockedCycles::no_targets            0                       # number of cycles access was blocked (Cycle)
system.cpu.icache.blockedCauses::no_mshrs           14                       # number of times access was blocked (Count)
system.cpu.icache.blockedCauses::no_targets            0                       # number of times access was blocked (Count)
system.cpu.icache.avgBlocked::no_mshrs     136.785714                       # average number of cycles each access was blocked ((Cycle/Count))
system.cpu.icache.avgBlocked::no_targets          nan                       # average number of cycles each access was blocked ((Cycle/Count))
system.cpu.icache.writebacks::writebacks         1253                       # number of writebacks (Count)
system.cpu.icache.writebacks::total              1253                       # number of writebacks (Count)
system.cpu.icache.demandMshrHits::cpu.inst          590                       # number of demand (read+write) MSHR hits (Count)
system.cpu.icache.demandMshrHits::total           590                       # number of demand (read+write) MSHR hits (Count)
system.cpu.icache.overallMshrHits::cpu.inst          590                       # number of overall MSHR hits (Count)
system.cpu.icache.overallMshrHits::total          590                       # number of overall MSHR hits (Count)
system.cpu.icache.demandMshrMisses::cpu.inst         1766                       # number of demand (read+write) MSHR misses (Count)
system.cpu.icache.demandMshrMisses::total         1766                       # number of demand (read+write) MSHR misses (Count)
system.cpu.icache.overallMshrMisses::cpu.inst         1766                       # number of overall MSHR misses (Count)
system.cpu.icache.overallMshrMisses::total         1766                       # number of overall MSHR misses (Count)
system.cpu.icache.demandMshrMissLatency::cpu.inst    147871313                       # number of demand (read+write) MSHR miss ticks (Tick)
system.cpu.icache.demandMshrMissLatency::total    147871313                       # number of demand (read+write) MSHR miss ticks (Tick)
system.cpu.icache.overallMshrMissLatency::cpu.inst    147871313                       # number of overall MSHR miss ticks (Tick)
system.cpu.icache.overallMshrMissLatency::total    147871313                       # number of overall MSHR miss ticks (Tick)
system.cpu.icache.demandMshrMissRate::cpu.inst     0.000345                       # mshr miss ratio for demand accesses (Ratio)
system.cpu.icache.demandMshrMissRate::total     0.000345                       # mshr miss ratio for demand accesses (Ratio)
system.cpu.icache.overallMshrMissRate::cpu.inst     0.000345                       # mshr miss ratio for overall accesses (Ratio)
system.cpu.icache.overallMshrMissRate::total     0.000345                       # mshr miss ratio for overall accesses (Ratio)
system.cpu.icache.demandAvgMshrMissLatency::cpu.inst 83732.340317                       # average overall mshr miss latency ((Tick/Count))
system.cpu.icache.demandAvgMshrMissLatency::total 83732.340317                       # average overall mshr miss latency ((Tick/Count))
system.cpu.icache.overallAvgMshrMissLatency::cpu.inst 83732.340317                       # average overall mshr miss latency ((Tick/Count))
system.cpu.icache.overallAvgMshrMissLatency::total 83732.340317                       # average overall mshr miss latency ((Tick/Count))
system.cpu.icache.replacements                   1253                       # number of replacements (Count)
system.cpu.icache.ReadReq.hits::cpu.inst      5123545                       # number of ReadReq hits (Count)
system.cpu.icache.ReadReq.hits::total         5123545                       # number of ReadReq hits (Count)
system.cpu.icache.ReadReq.misses::cpu.inst         2356                       # number of ReadReq misses (Count)
system.cpu.icache.ReadReq.misses::total          2356                       # number of ReadReq misses (Count)
system.cpu.icache.ReadReq.missLatency::cpu.inst    190280195                       # number of ReadReq miss ticks (Tick)
system.cpu.icache.ReadReq.missLatency::total    190280195                       # number of ReadReq miss ticks (Tick)
system.cpu.icache.ReadReq.accesses::cpu.inst      5125901                       # number of ReadReq accesses(hits+misses) (Count)
system.cpu.icache.ReadReq.accesses::total      5125901                       # number of ReadReq accesses(hits+misses) (Count)
system.cpu.icache.ReadReq.missRate::cpu.inst     0.000460                       # miss rate for ReadReq accesses (Ratio)
system.cpu.icache.ReadReq.missRate::total     0.000460                       # miss rate for ReadReq accesses (Ratio)
system.cpu.icache.ReadReq.avgMissLatency::cpu.inst 80764.089559                       # average ReadReq miss latency ((Tick/Count))
system.cpu.icache.ReadReq.avgMissLatency::total 80764.089559                       # average ReadReq miss latency ((Tick/Count))
system.cpu.icache.ReadReq.mshrHits::cpu.inst          590                       # number of ReadReq MSHR hits (Count)
system.cpu.icache.ReadReq.mshrHits::total          590                       # number of ReadReq MSHR hits (Count)
system.cpu.icache.ReadReq.mshrMisses::cpu.inst         1766                       # number of ReadReq MSHR misses (Count)
system.cpu.icache.ReadReq.mshrMisses::total         1766                       # number of ReadReq MSHR misses (Count)
system.cpu.icache.ReadReq.mshrMissLatency::cpu.inst    147871313                       # number of ReadReq MSHR miss ticks (Tick)
system.cpu.icache.ReadReq.mshrMissLatency::total    147871313                       # number of ReadReq MSHR miss ticks (Tick)
system.cpu.icache.ReadReq.mshrMissRate::cpu.inst     0.000345                       # mshr miss rate for ReadReq accesses (Ratio)
system.cpu.icache.ReadReq.mshrMissRate::total     0.000345                       # mshr miss rate for ReadReq accesses (Ratio)
system.cpu.icache.ReadReq.avgMshrMissLatency::cpu.inst 83732.340317                       # average ReadReq mshr miss latency ((Tick/Count))
system.cpu.icache.ReadReq.avgMshrMissLatency::total 83732.340317                       # average ReadReq mshr miss latency ((Tick/Count))
system.cpu.icache.power_state.pwrStateResidencyTicks::UNDEFINED  10926760302                       # Cumulative time (in ticks) in various power states (Tick)
system.cpu.icache.tags.tagsInUse           510.917436                       # Average ticks per tags in use ((Tick/Count))
system.cpu.icache.tags.totalRefs              5125310                       # Total number of references to valid blocks. (Count)
system.cpu.icache.tags.sampledRefs               1765                       # Sample count of references to valid blocks. (Count)
system.cpu.icache.tags.avgRefs            2903.858357                       # Average number of references to valid blocks. ((Count/Count))
system.cpu.icache.tags.warmupTick               92241                       # The tick when the warmup percentage was hit. (Tick)
system.cpu.icache.tags.occupancies::cpu.inst   510.917436                       # Average occupied blocks per tick, per requestor ((Count/Tick))
system.cpu.icache.tags.avgOccs::cpu.inst     0.997886                       # Average percentage of cache occupancy ((Ratio/Tick))
system.cpu.icache.tags.avgOccs::total        0.997886                       # Average percentage of cache occupancy ((Ratio/Tick))
system.cpu.icache.tags.occupanciesTaskId::1024          512                       # Occupied blocks per task id (Count)
system.cpu.icache.tags.ageTaskId_1024::0          120                       # Occupied blocks per task id, per block age (Count)
system.cpu.icache.tags.ageTaskId_1024::1           80                       # Occupied blocks per task id, per block age (Count)
system.cpu.icache.tags.ageTaskId_1024::2            4                       # Occupied blocks per task id, per block age (Count)
system.cpu.icache.tags.ageTaskId_1024::3          111                       # Occupied blocks per task id, per block age (Count)
system.cpu.icache.tags.ageTaskId_1024::4          197                       # Occupied blocks per task id, per block age (Count)
system.cpu.icache.tags.ratioOccsTaskId::1024            1                       # Ratio of occupied blocks and all blocks, per task id (Ratio)
system.cpu.icache.tags.tagAccesses           41008973                       # Number of tag accesses (Count)
system.cpu.icache.tags.dataAccesses          41008973                       # Number of data accesses (Count)
system.cpu.icache.tags.power_state.pwrStateResidencyTicks::UNDEFINED  10926760302                       # Cumulative time (in ticks) in various power states (Tick)
system.cpu.iew.idleCycles                           0                       # Number of cycles IEW is idle (Cycle)
system.cpu.iew.squashCycles                     41199                       # Number of cycles IEW is squashing (Cycle)
system.cpu.iew.blockCycles                     625550                       # Number of cycles IEW is blocking (Cycle)
system.cpu.iew.unblockCycles                    36123                       # Number of cycles IEW is unblocking (Cycle)
system.cpu.iew.dispatchedInsts               84103633                       # Number of instructions dispatched to IQ (Count)
system.cpu.iew.dispSquashedInsts                 3070                       # Number of squashed instructions skipped by dispatch (Count)
system.cpu.iew.dispLoadInsts                  9570123                       # Number of dispatched load instructions (Count)
system.cpu.iew.dispStoreInsts                 5334888                       # Number of dispatched store instructions (Count)
system.cpu.iew.dispNonSpecInsts                   145                       # Number of dispatched non-speculative instructions (Count)
system.cpu.iew.iqFullEvents                      9494                       # Number of times the IQ has become full, causing a stall (Count)
system.cpu.iew.lsqFullEvents                    17646                       # Number of times the LSQ has become full, causing a stall (Count)
system.cpu.iew.memOrderViolationEvents            289                       # Number of memory order violations (Count)
system.cpu.iew.predictedTakenIncorrect          25381                       # Number of branches that were predicted taken incorrectly (Count)
system.cpu.iew.predictedNotTakenIncorrect        16150                       # Number of branches that were predicted not taken incorrectly (Count)
system.cpu.iew.branchMispredicts                41531                       # Number of branch mispredicts detected at execute (Count)
system.cpu.iew.instsToCommit                 83538048                       # Cumulative count of insts sent to commit (Count)
system.cpu.iew.writebackCount                83524747                       # Cumulative count of insts written-back (Count)
system.cpu.iew.producerInst                  60797848                       # Number of instructions producing a value (Count)
system.cpu.iew.consumerInst                 105778458                       # Number of instructions consuming a value (Count)
system.cpu.iew.wbRate                        2.545470                       # Insts written-back per cycle ((Count/Cycle))
system.cpu.iew.wbFanout                      0.574766                       # Average fanout of values written-back ((Count/Count))
system.cpu.interrupts.clk_domain.clock           5328                       # Clock period in ticks (Tick)
system.cpu.itb_walker_cache.blockedCycles::no_mshrs            0                       # number of cycles access was blocked (Cycle)
system.cpu.itb_walker_cache.blockedCycles::no_targets            0                       # number of cycles access was blocked (Cycle)
system.cpu.itb_walker_cache.blockedCauses::no_mshrs            0                       # number of times access was blocked (Count)
system.cpu.itb_walker_cache.blockedCauses::no_targets            0                       # number of times access was blocked (Count)
system.cpu.itb_walker_cache.avgBlocked::no_mshrs          nan                       # average number of cycles each access was blocked ((Cycle/Count))
system.cpu.itb_walker_cache.avgBlocked::no_targets          nan                       # average number of cycles each access was blocked ((Cycle/Count))
system.cpu.itb_walker_cache.replacements            0                       # number of replacements (Count)
system.cpu.itb_walker_cache.power_state.pwrStateResidencyTicks::UNDEFINED  10926760302                       # Cumulative time (in ticks) in various power states (Tick)
system.cpu.itb_walker_cache.tags.tagsInUse            0                       # Average ticks per tags in use ((Tick/Count))
system.cpu.itb_walker_cache.tags.totalRefs            0                       # Total number of references to valid blocks. (Count)
system.cpu.itb_walker_cache.tags.sampledRefs            0                       # Sample count of references to valid blocks. (Count)
system.cpu.itb_walker_cache.tags.avgRefs          nan                       # Average number of references to valid blocks. ((Count/Count))
[...]
system.mem_ctrls.dram.perBankRdBursts::13         3431                       # Per bank write bursts (Count)
system.mem_ctrls.dram.perBankRdBursts::14         3384                       # Per bank write bursts (Count)
system.mem_ctrls.dram.perBankRdBursts::15         3316                       # Per bank write bursts (Count)
system.mem_ctrls.dram.perBankWrBursts::0            0                       # Per bank write bursts (Count)
system.mem_ctrls.dram.perBankWrBursts::1            0                       # Per bank write bursts (Count)
system.mem_ctrls.dram.perBankWrBursts::2            0                       # Per bank write bursts (Count)
system.mem_ctrls.dram.perBankWrBursts::3            0                       # Per bank write bursts (Count)
system.mem_ctrls.dram.perBankWrBursts::4            0                       # Per bank write bursts (Count)
system.mem_ctrls.dram.perBankWrBursts::5            0                       # Per bank write bursts (Count)
system.mem_ctrls.dram.perBankWrBursts::6            0                       # Per bank write bursts (Count)
system.mem_ctrls.dram.perBankWrBursts::7            0                       # Per bank write bursts (Count)
system.mem_ctrls.dram.perBankWrBursts::8            0                       # Per bank write bursts (Count)
system.mem_ctrls.dram.perBankWrBursts::9            0                       # Per bank write bursts (Count)
system.mem_ctrls.dram.perBankWrBursts::10            0                       # Per bank write bursts (Count)
system.mem_ctrls.dram.perBankWrBursts::11            0                       # Per bank write bursts (Count)
system.mem_ctrls.dram.perBankWrBursts::12            0                       # Per bank write bursts (Count)
system.mem_ctrls.dram.perBankWrBursts::13            0                       # Per bank write bursts (Count)
system.mem_ctrls.dram.perBankWrBursts::14            0                       # Per bank write bursts (Count)
system.mem_ctrls.dram.perBankWrBursts::15            0                       # Per bank write bursts (Count)
system.mem_ctrls.dram.totQLat               661636871                       # Total ticks spent queuing (Tick)
system.mem_ctrls.dram.totBusLat             271695000                       # Total ticks spent in databus transfers (Tick)
system.mem_ctrls.dram.totMemAccLat         1680493121                       # Total ticks spent from burst creation until serviced by the DRAM (Tick)
system.mem_ctrls.dram.avgQLat                12176.10                       # Average queueing delay per DRAM burst ((Tick/Count))
system.mem_ctrls.dram.avgBusLat               5000.00                       # Average bus latency per DRAM burst ((Tick/Count))
system.mem_ctrls.dram.avgMemAccLat           30926.10                       # Average memory access latency per DRAM burst ((Tick/Count))
system.mem_ctrls.dram.readRowHits               34654                       # Number of row buffer hits during reads (Count)
system.mem_ctrls.dram.writeRowHits                  0                       # Number of row buffer hits during writes (Count)
system.mem_ctrls.dram.readRowHitRate            63.77                       # Row buffer hit rate for reads (Ratio)
system.mem_ctrls.dram.writeRowHitRate             nan                       # Row buffer hit rate for writes (Ratio)
system.mem_ctrls.dram.bytesPerActivate::samples        19680                       # Bytes accessed per row activation (Byte)
system.mem_ctrls.dram.bytesPerActivate::mean   176.676423                       # Bytes accessed per row activation (Byte)
system.mem_ctrls.dram.bytesPerActivate::gmean    92.904288                       # Bytes accessed per row activation (Byte)
system.mem_ctrls.dram.bytesPerActivate::stdev   291.394818                       # Bytes accessed per row activation (Byte)
system.mem_ctrls.dram.bytesPerActivate::0-127        16430     83.49%     83.49% # Bytes accessed per row activation (Byte)
system.mem_ctrls.dram.bytesPerActivate::128-255          446      2.27%     85.75% # Bytes accessed per row activation (Byte)
system.mem_ctrls.dram.bytesPerActivate::256-383          313      1.59%     87.34% # Bytes accessed per row activation (Byte)
system.mem_ctrls.dram.bytesPerActivate::384-511          209      1.06%     88.40% # Bytes accessed per row activation (Byte)
system.mem_ctrls.dram.bytesPerActivate::512-639          119      0.60%     89.01% # Bytes accessed per row activation (Byte)
system.mem_ctrls.dram.bytesPerActivate::640-767          155      0.79%     89.80% # Bytes accessed per row activation (Byte)
system.mem_ctrls.dram.bytesPerActivate::768-895           75      0.38%     90.18% # Bytes accessed per row activation (Byte)
system.mem_ctrls.dram.bytesPerActivate::896-1023          127      0.65%     90.82% # Bytes accessed per row activation (Byte)
system.mem_ctrls.dram.bytesPerActivate::1024-1151         1806      9.18%    100.00% # Bytes accessed per row activation (Byte)
system.mem_ctrls.dram.bytesPerActivate::total        19680                       # Bytes accessed per row activation (Byte)
system.mem_ctrls.dram.bytesRead               3477696                       # Total bytes read (Byte)
system.mem_ctrls.dram.bytesWritten                  0                       # Total bytes written (Byte)
system.mem_ctrls.dram.avgRdBW              318.273295                       # Average DRAM read bandwidth in MiBytes/s ((Byte/Second))
system.mem_ctrls.dram.avgWrBW                       0                       # Average DRAM write bandwidth in MiBytes/s ((Byte/Second))
system.mem_ctrls.dram.peakBW                 12800.00                       # Theoretical peak bandwidth in MiByte/s ((Byte/Second))
system.mem_ctrls.dram.busUtil                    2.49                       # Data bus utilization in percentage (Ratio)
system.mem_ctrls.dram.busUtilRead                2.49                       # Data bus utilization in percentage for reads (Ratio)
system.mem_ctrls.dram.busUtilWrite               0.00                       # Data bus utilization in percentage for writes (Ratio)
system.mem_ctrls.dram.pageHitRate               63.77                       # Row buffer hit rate, read and write combined (Ratio)
system.mem_ctrls.dram.power_state.pwrStateResidencyTicks::UNDEFINED  10926760302                       # Cumulative time (in ticks) in various power states (Tick)
system.mem_ctrls.dram.rank0.actEnergy        70678860                       # Energy for activate commands per rank (pJ) (Joule)
system.mem_ctrls.dram.rank0.preEnergy        37551525                       # Energy for precharge commands per rank (pJ) (Joule)
system.mem_ctrls.dram.rank0.readEnergy      194208000                       # Energy for read commands per rank (pJ) (Joule)
system.mem_ctrls.dram.rank0.writeEnergy             0                       # Energy for write commands per rank (pJ) (Joule)
system.mem_ctrls.dram.rank0.refreshEnergy 862339920.000000                       # Energy for refresh commands per rank (pJ) (Joule)
system.mem_ctrls.dram.rank0.actBackEnergy   2120085930                       # Energy for active background per rank (pJ) (Joule)
system.mem_ctrls.dram.rank0.preBackEnergy   2410540800                       # Energy for precharge background per rank (pJ) (Joule)
system.mem_ctrls.dram.rank0.actPowerDownEnergy            0                       # Energy for active power-down per rank (pJ) (Joule)
system.mem_ctrls.dram.rank0.prePowerDownEnergy            0                       # Energy for precharge power-down per rank (pJ) (Joule)
system.mem_ctrls.dram.rank0.selfRefreshEnergy            0                       # Energy for self refresh per rank (pJ) (Joule)
system.mem_ctrls.dram.rank0.totalEnergy    5695405035                       # Total energy per rank (pJ) (Joule)
system.mem_ctrls.dram.rank0.averagePower   521.234554                       # Core power per rank (mW) (Watt)
system.mem_ctrls.dram.rank0.totalIdleTime            0                       # Total Idle time Per DRAM Rank (Tick)
system.mem_ctrls.dram.rank0.pwrStateTime::IDLE   6239637372                       # Time in different power states (Tick)
system.mem_ctrls.dram.rank0.pwrStateTime::REF    364780000                       # Time in different power states (Tick)
system.mem_ctrls.dram.rank0.pwrStateTime::SREF            0                       # Time in different power states (Tick)
system.mem_ctrls.dram.rank0.pwrStateTime::PRE_PDN            0                       # Time in different power states (Tick)
system.mem_ctrls.dram.rank0.pwrStateTime::ACT   4322342930                       # Time in different power states (Tick)
system.mem_ctrls.dram.rank0.pwrStateTime::ACT_PDN            0                       # Time in different power states (Tick)
system.mem_ctrls.dram.rank1.actEnergy        69872040                       # Energy for activate commands per rank (pJ) (Joule)
system.mem_ctrls.dram.rank1.preEnergy        37134075                       # Energy for precharge commands per rank (pJ) (Joule)
system.mem_ctrls.dram.rank1.readEnergy      193772460                       # Energy for read commands per rank (pJ) (Joule)
system.mem_ctrls.dram.rank1.writeEnergy             0                       # Energy for write commands per rank (pJ) (Joule)
system.mem_ctrls.dram.rank1.refreshEnergy 862339920.000000                       # Energy for refresh commands per rank (pJ) (Joule)
system.mem_ctrls.dram.rank1.actBackEnergy   2117285520                       # Energy for active background per rank (pJ) (Joule)
system.mem_ctrls.dram.rank1.preBackEnergy   2412899040                       # Energy for precharge background per rank (pJ) (Joule)
system.mem_ctrls.dram.rank1.actPowerDownEnergy            0                       # Energy for active power-down per rank (pJ) (Joule)
system.mem_ctrls.dram.rank1.prePowerDownEnergy            0                       # Energy for precharge power-down per rank (pJ) (Joule)
system.mem_ctrls.dram.rank1.selfRefreshEnergy            0                       # Energy for self refresh per rank (pJ) (Joule)
system.mem_ctrls.dram.rank1.totalEnergy    5693303055                       # Total energy per rank (pJ) (Joule)
system.mem_ctrls.dram.rank1.averagePower   521.042184                       # Core power per rank (mW) (Watt)
system.mem_ctrls.dram.rank1.totalIdleTime            0                       # Total Idle time Per DRAM Rank (Tick)
system.mem_ctrls.dram.rank1.pwrStateTime::IDLE   6246216080                       # Time in different power states (Tick)
system.mem_ctrls.dram.rank1.pwrStateTime::REF    364780000                       # Time in different power states (Tick)
system.mem_ctrls.dram.rank1.pwrStateTime::SREF            0                       # Time in different power states (Tick)
system.mem_ctrls.dram.rank1.pwrStateTime::PRE_PDN            0                       # Time in different power states (Tick)
system.mem_ctrls.dram.rank1.pwrStateTime::ACT   4315764222                       # Time in different power states (Tick)
system.mem_ctrls.dram.rank1.pwrStateTime::ACT_PDN            0                       # Time in different power states (Tick)
system.mem_ctrls.power_state.pwrStateResidencyTicks::UNDEFINED  10926760302                       # Cumulative time (in ticks) in various power states (Tick)
system.membus.transDist::ReadResp                4199                       # Transaction distribution (Count)
system.membus.transDist::ReadExReq              50140                       # Transaction distribution (Count)
system.membus.transDist::ReadExResp             50140                       # Transaction distribution (Count)
system.membus.transDist::ReadSharedReq           4199                       # Transaction distribution (Count)
system.membus.pktCount_system.l3.mem_side_port::system.mem_ctrls.port       108678                       # Packet count per connected requestor and responder (Count)
system.membus.pktCount_system.l3.mem_side_port::total       108678                       # Packet count per connected requestor and responder (Count)
system.membus.pktCount::total                  108678                       # Packet count per connected requestor and responder (Count)
system.membus.pktSize_system.l3.mem_side_port::system.mem_ctrls.port      3477696                       # Cumulative packet size per connected requestor and responder (Byte)
system.membus.pktSize_system.l3.mem_side_port::total      3477696                       # Cumulative packet size per connected requestor and responder (Byte)
system.membus.pktSize::total                  3477696                       # Cumulative packet size per connected requestor and responder (Byte)
system.membus.snoops                                0                       # Total snoops (Count)
system.membus.snoopTraffic                          0                       # Total snoop traffic (Byte)
system.membus.snoopFanout::samples              54339                       # Request fanout histogram (Count)
system.membus.snoopFanout::mean                     0                       # Request fanout histogram (Count)
system.membus.snoopFanout::stdev                    0                       # Request fanout histogram (Count)
system.membus.snoopFanout::underflows               0      0.00%      0.00% # Request fanout histogram (Count)
system.membus.snoopFanout::0                    54339    100.00%    100.00% # Request fanout histogram (Count)
system.membus.snoopFanout::1                        0      0.00%    100.00% # Request fanout histogram (Count)
system.membus.snoopFanout::overflows                0      0.00%    100.00% # Request fanout histogram (Count)
system.membus.snoopFanout::min_value                0                       # Request fanout histogram (Count)
system.membus.snoopFanout::max_value                0                       # Request fanout histogram (Count)
system.membus.snoopFanout::total                54339                       # Request fanout histogram (Count)
system.membus.power_state.pwrStateResidencyTicks::UNDEFINED  10926760302                       # Cumulative time (in ticks) in various power states (Tick)
system.membus.reqLayer2.occupancy            73571547                       # Layer occupancy (ticks) (Tick)
system.membus.reqLayer2.utilization               0.0                       # Layer utilization (Ratio)
system.membus.respLayer1.occupancy          293422773                       # Layer occupancy (ticks) (Tick)
system.membus.respLayer1.utilization              0.0                       # Layer utilization (Ratio)
system.membus.snoop_filter.totRequests          54339                       # Total number of requests made to the snoop filter. (Count)
system.membus.snoop_filter.hitSingleRequests            0                       # Number of requests hitting in the snoop filter with a single holder of the requested data. (Count)
system.membus.snoop_filter.hitMultiRequests            0                       # Number of requests hitting in the snoop filter with multiple (>1) holders of the requested data. (Count)
system.membus.snoop_filter.totSnoops                0                       # Total number of snoops made to the snoop filter. (Count)
system.membus.snoop_filter.hitSingleSnoops            0                       # Number of snoops hitting in the snoop filter with a single holder of the requested data. (Count)
system.membus.snoop_filter.hitMultiSnoops            0                       # Number of snoops hitting in the snoop filter with multiple (>1) holders of the requested data. (Count)
system.tol3bus.transDist::ReadResp              50861                       # Transaction distribution (Count)
system.tol3bus.transDist::WritebackDirty        81567                       # Transaction distribution (Count)
system.tol3bus.transDist::CleanEvict             3482                       # Transaction distribution (Count)
system.tol3bus.transDist::ReadExReq             67204                       # Transaction distribution (Count)
system.tol3bus.transDist::ReadExResp            67204                       # Transaction distribution (Count)
system.tol3bus.transDist::ReadSharedReq         50861                       # Transaction distribution (Count)
system.tol3bus.pktCount_system.cpu.l2cache.mem_side_port::system.l3.cpu_side_port       321179                       # Packet count per connected requestor and responder (Count)
system.tol3bus.pktSize_system.cpu.l2cache.mem_side_port::system.l3.cpu_side_port     12776448                       # Cumulative packet size per connected requestor and responder (Byte)
system.tol3bus.snoops                               0                       # Total snoops (Count)
system.tol3bus.snoopTraffic                         0                       # Total snoop traffic (Byte)
system.tol3bus.snoopFanout::samples            118065                       # Request fanout histogram (Count)
system.tol3bus.snoopFanout::mean                    0                       # Request fanout histogram (Count)
system.tol3bus.snoopFanout::stdev                   0                       # Request fanout histogram (Count)
system.tol3bus.snoopFanout::underflows              0      0.00%      0.00% # Request fanout histogram (Count)
system.tol3bus.snoopFanout::0                  118065    100.00%    100.00% # Request fanout histogram (Count)
system.tol3bus.snoopFanout::1                       0      0.00%    100.00% # Request fanout histogram (Count)
system.tol3bus.snoopFanout::overflows               0      0.00%    100.00% # Request fanout histogram (Count)
system.tol3bus.snoopFanout::min_value               0                       # Request fanout histogram (Count)
system.tol3bus.snoopFanout::max_value               0                       # Request fanout histogram (Count)
system.tol3bus.snoopFanout::total              118065                       # Request fanout histogram (Count)
system.tol3bus.power_state.pwrStateResidencyTicks::UNDEFINED  10926760302                       # Cumulative time (in ticks) in various power states (Tick)
system.tol3bus.reqLayer0.occupancy          121960584                       # Layer occupancy (ticks) (Tick)
system.tol3bus.reqLayer0.utilization              0.0                       # Layer utilization (Ratio)
system.tol3bus.respLayer0.occupancy         117946935                       # Layer occupancy (ticks) (Tick)
system.tol3bus.respLayer0.utilization             0.0                       # Layer utilization (Ratio)
system.tol3bus.snoop_filter.totRequests        203114                       # Total number of requests made to the snoop filter. (Count)
system.tol3bus.snoop_filter.hitSingleRequests        85050                       # Number of requests hitting in the snoop filter with a single holder of the requested data. (Count)
system.tol3bus.snoop_filter.hitMultiRequests            0                       # Number of requests hitting in the snoop filter with multiple (>1) holders of the requested data. (Count)
system.tol3bus.snoop_filter.totSnoops               0                       # Total number of snoops made to the snoop filter. (Count)
system.tol3bus.snoop_filter.hitSingleSnoops            0                       # Number of snoops hitting in the snoop filter with a single holder of the requested data. (Count)
system.tol3bus.snoop_filter.hitMultiSnoops            0                       # Number of snoops hitting in the snoop filter with multiple (>1) holders of the requested data. (Count)
system.voltage_domain.voltage                       1                       # Voltage in Volts (Volt)
system.workload.inst.arm                            0                       # number of arm instructions executed (Count)
system.workload.inst.quiesce                        0                       # number of quiesce instructions executed (Count)

---------- End Simulation Statistics   ----------
