
---------- Begin Simulation Statistics ----------
simSeconds                                   0.040124                       # Number of seconds simulated (Second)
simTicks                                  40124021148                       # Number of ticks simulated (Tick)
finalTick                                 40124021148                       # Number of ticks from beginning of simulation (restored from checkpoints and never reset) (Tick)
simFreq                                  1000000000000                       # The number of ticks per simulated second ((Tick/Second))
hostSeconds                                   1894.21                       # Real time elapsed on the host (Second)
hostTickRate                                 21182492                       # The number of ticks simulated per host second (ticks/s) ((Tick/Second))
hostMemory                                     885036                       # Number of bytes of host memory used (Byte)
simInsts                                    435373649                       # Number of instructions simulated (Count)
simOps                                      809194676                       # Number of ops (including micro ops) simulated (Count)
hostInstRate                                   229845                       # Simulator instruction rate (inst/s) ((Count/Second))
hostOpRate                                     427194                       # Simulator op (including micro ops) rate (op/s) ((Count/Second))
system.clk_domain.clock                          1000                       # Clock period in ticks (Tick)
system.cpu0.numCycles                       110035170                       # Number of cpu cycles simulated (Cycle)
system.cpu0.numWorkItemsStarted                     0                       # Number of work items this cpu started (Count)
system.cpu0.numWorkItemsCompleted                   0                       # Number of work items this cpu completed (Count)
system.cpu0.instsAdded                      285976516                       # Number of instructions added to the IQ (excludes non-spec) (Count)
system.cpu0.nonSpecInstsAdded                    6467                       # Number of non-speculative instructions added to the IQ (Count)
system.cpu0.instsIssued                     285427290                       # Number of instructions issued (Count)
system.cpu0.squashedInstsIssued                  4867                       # Number of squashed instructions issued (Count)
system.cpu0.squashedInstsExamined             4320319                       # Number of squashed instructions iterated over during squash; mainly for profiling (Count)
system.cpu0.squashedOperandsExamined          4606455                       # Number of squashed operands that are examined and possibly removed from graph (Count)
system.cpu0.squashedNonSpecRemoved               3359                       # Number of squashed non-spec instructions that were removed (Count)
system.cpu0.numIssuedDist::samples          109793270                       # Number of insts issued each cycle (Count)
system.cpu0.numIssuedDist::mean              2.599679                       # Number of insts issued each cycle (Count)
system.cpu0.numIssuedDist::stdev             1.632836                       # Number of insts issued each cycle (Count)
system.cpu0.numIssuedDist::underflows               0      0.00%      0.00% # Number of insts issued each cycle (Count)
system.cpu0.numIssuedDist::0                  7341757      6.69%      6.69% # Number of insts issued each cycle (Count)
system.cpu0.numIssuedDist::1                 23435173     21.34%     28.03% # Number of insts issued each cycle (Count)
system.cpu0.numIssuedDist::2                 27037072     24.63%     52.66% # Number of insts issued each cycle (Count)
system.cpu0.numIssuedDist::3                 20502527     18.67%     71.33% # Number of insts issued each cycle (Count)
system.cpu0.numIssuedDist::4                 21243876     19.35%     90.68% # Number of insts issued each cycle (Count)
system.cpu0.numIssuedDist::5                  3883754      3.54%     94.22% # Number of insts issued each cycle (Count)
system.cpu0.numIssuedDist::6                  3475751      3.17%     97.38% # Number of insts issued each cycle (Count)
system.cpu0.numIssuedDist::7                  1825268      1.66%     99.05% # Number of insts issued each cycle (Count)
system.cpu0.numIssuedDist::8                  1048092      0.95%    100.00% # Number of insts issued each cycle (Count)
system.cpu0.numIssuedDist::overflows                0      0.00%    100.00% # Number of insts issued each cycle (Count)
system.cpu0.numIssuedDist::min_value                0                       # Number of insts issued each cycle (Count)
system.cpu0.numIssuedDist::max_value                8                       # Number of insts issued each cycle (Count)
system.cpu0.numIssuedDist::total            109793270                       # Number of insts issued each cycle (Count)
system.cpu0.statFuBusy::No_OpClass                  0      0.00%      0.00% # attempts to use FU when none available (Count)
system.cpu0.statFuBusy::IntAlu                1093570     92.31%     92.31% # attempts to use FU when none available (Count)
system.cpu0.statFuBusy::IntMult                     0      0.00%     92.31% # attempts to use FU when none available (Count)
system.cpu0.statFuBusy::IntDiv                      0      0.00%     92.31% # attempts to use FU when none available (Count)
system.cpu0.statFuBusy::FloatAdd                    0      0.00%     92.31% # attempts to use FU when none available (Count)
system.cpu0.statFuBusy::FloatCmp                    0      0.00%     92.31% # attempts to use FU when none available (Count)
system.cpu0.statFuBusy::FloatCvt                    0      0.00%     92.31% # attempts to use FU when none available (Count)
system.cpu0.statFuBusy::FloatMult                   0      0.00%     92.31% # attempts to use FU when none available (Count)
system.cpu0.statFuBusy::FloatMultAcc                0      0.00%     92.31% # attempts to use FU when none available (Count)
system.cpu0.statFuBusy::FloatDiv                    0      0.00%     92.31% # attempts to use FU when none available (Count)
system.cpu0.statFuBusy::FloatMisc                   0      0.00%     92.31% # attempts to use FU when none available (Count)
system.cpu0.statFuBusy::FloatSqrt                   0      0.00%     92.31% # attempts to use FU when none available (Count)
system.cpu0.statFuBusy::SimdAdd                     1      0.00%     92.31% # attempts to use FU when none available (Count)
system.cpu0.statFuBusy::SimdAddAcc                  0      0.00%     92.31% # attempts to use FU when none available (Count)
system.cpu0.statFuBusy::SimdAlu                    50      0.00%     92.32% # attempts to use FU when none available (Count)
system.cpu0.statFuBusy::SimdCmp                     3      0.00%     92.32% # attempts to use FU when none available (Count)
system.cpu0.statFuBusy::SimdCvt                   132      0.01%     92.33% # attempts to use FU when none available (Count)
system.cpu0.statFuBusy::SimdMisc                   14      0.00%     92.33% # attempts to use FU when none available (Count)
system.cpu0.statFuBusy::SimdMult                    0      0.00%     92.33% # attempts to use FU when none available (Count)
system.cpu0.statFuBusy::SimdMultAcc                 0      0.00%     92.33% # attempts to use FU when none available (Count)
system.cpu0.statFuBusy::SimdShift                  28      0.00%     92.33% # attempts to use FU when none available (Count)
system.cpu0.statFuBusy::SimdShiftAcc                0      0.00%     92.33% # attempts to use FU when none available (Count)
system.cpu0.statFuBusy::SimdDiv                     0      0.00%     92.33% # attempts to use FU when none available (Count)
system.cpu0.statFuBusy::SimdSqrt                    0      0.00%     92.33% # attempts to use FU when none available (Count)
system.cpu0.statFuBusy::SimdFloatAdd               61      0.01%     92.34% # attempts to use FU when none available (Count)
system.cpu0.statFuBusy::SimdFloatAlu                0      0.00%     92.34% # attempts to use FU when none available (Count)
system.cpu0.statFuBusy::SimdFloatCmp                0      0.00%     92.34% # attempts to use FU when none available (Count)
system.cpu0.statFuBusy::SimdFloatCvt                0      0.00%     92.34% # attempts to use FU when none available (Count)
system.cpu0.statFuBusy::SimdFloatDiv                6      0.00%     92.34% # attempts to use FU when none available (Count)
system.cpu0.statFuBusy::SimdFloatMisc               0      0.00%     92.34% # attempts to use FU when none available (Count)
system.cpu0.statFuBusy::SimdFloatMult           81160      6.85%     99.19% # attempts to use FU when none available (Count)
system.cpu0.statFuBusy::SimdFloatMultAcc            0      0.00%     99.19% # attempts to use FU when none available (Count)
system.cpu0.statFuBusy::SimdFloatSqrt               0      0.00%     99.19% # attempts to use FU when none available (Count)
system.cpu0.statFuBusy::SimdReduceAdd               0      0.00%     99.19% # attempts to use FU when none available (Count)
system.cpu0.statFuBusy::SimdReduceAlu               0      0.00%     99.19% # attempts to use FU when none available (Count)
system.cpu0.statFuBusy::SimdReduceCmp               0      0.00%     99.19% # attempts to use FU when none available (Count)
system.cpu0.statFuBusy::SimdFloatReduceAdd            0      0.00%     99.19% # attempts to use FU when none available (Count)
system.cpu0.statFuBusy::SimdFloatReduceCmp            0      0.00%     99.19% # attempts to use FU when none available (Count)
system.cpu0.statFuBusy::SimdAes                     0      0.00%     99.19% # attempts to use FU when none available (Count)
system.cpu0.statFuBusy::SimdAesMix                  0      0.00%     99.19% # attempts to use FU when none available (Count)
system.cpu0.statFuBusy::SimdSha1Hash                0      0.00%     99.19% # attempts to use FU when none available (Count)
system.cpu0.statFuBusy::SimdSha1Hash2               0      0.00%     99.19% # attempts to use FU when none available (Count)
system.cpu0.statFuBusy::SimdSha256Hash              0      0.00%     99.19% # attempts to use FU when none available (Count)
system.cpu0.statFuBusy::SimdSha256Hash2             0      0.00%     99.19% # attempts to use FU when none available (Count)
system.cpu0.statFuBusy::SimdShaSigma2               0      0.00%     99.19% # attempts to use FU when none available (Count)
system.cpu0.statFuBusy::SimdShaSigma3               0      0.00%     99.19% # attempts to use FU when none available (Count)
system.cpu0.statFuBusy::SimdPredAlu                 0      0.00%     99.19% # attempts to use FU when none available (Count)
system.cpu0.statFuBusy::MemRead                  5227      0.44%     99.63% # attempts to use FU when none available (Count)
system.cpu0.statFuBusy::MemWrite                 4026      0.34%     99.97% # attempts to use FU when none available (Count)
system.cpu0.statFuBusy::FloatMemRead              207      0.02%     99.99% # attempts to use FU when none available (Count)
system.cpu0.statFuBusy::FloatMemWrite             153      0.01%    100.00% # attempts to use FU when none available (Count)
system.cpu0.statFuBusy::IprAccess                   0      0.00%    100.00% # attempts to use FU when none available (Count)
system.cpu0.statFuBusy::InstPrefetch                0      0.00%    100.00% # attempts to use FU when none available (Count)
system.cpu0.statIssuedInstType_0::No_OpClass      1816738      0.64%      0.64% # Number of instructions issued per FU type, per thread (Count)
system.cpu0.statIssuedInstType_0::IntAlu    187957639     65.85%     66.49% # Number of instructions issued per FU type, per thread (Count)
system.cpu0.statIssuedInstType_0::IntMult      1329028      0.47%     66.95% # Number of instructions issued per FU type, per thread (Count)
system.cpu0.statIssuedInstType_0::IntDiv     14791154      5.18%     72.14% # Number of instructions issued per FU type, per thread (Count)
system.cpu0.statIssuedInstType_0::FloatAdd     11997708      4.20%     76.34% # Number of instructions issued per FU type, per thread (Count)
system.cpu0.statIssuedInstType_0::FloatCmp            0      0.00%     76.34% # Number of instructions issued per FU type, per thread (Count)
system.cpu0.statIssuedInstType_0::FloatCvt          192      0.00%     76.34% # Number of instructions issued per FU type, per thread (Count)
system.cpu0.statIssuedInstType_0::FloatMult            0      0.00%     76.34% # Number of instructions issued per FU type, per thread (Count)
system.cpu0.statIssuedInstType_0::FloatMultAcc            0      0.00%     76.34% # Number of instructions issued per FU type, per thread (Count)
system.cpu0.statIssuedInstType_0::FloatDiv            0      0.00%     76.34% # Number of instructions issued per FU type, per thread (Count)
system.cpu0.statIssuedInstType_0::FloatMisc            0      0.00%     76.34% # Number of instructions issued per FU type, per thread (Count)
system.cpu0.statIssuedInstType_0::FloatSqrt            0      0.00%     76.34% # Number of instructions issued per FU type, per thread (Count)
system.cpu0.statIssuedInstType_0::SimdAdd         1488      0.00%     76.34% # Number of instructions issued per FU type, per thread (Count)
system.cpu0.statIssuedInstType_0::SimdAddAcc            0      0.00%     76.34% # Number of instructions issued per FU type, per thread (Count)
system.cpu0.statIssuedInstType_0::SimdAlu      1900441      0.67%     77.01% # Number of instructions issued per FU type, per thread (Count)
system.cpu0.statIssuedInstType_0::SimdCmp           34      0.00%     77.01% # Number of instructions issued per FU type, per thread (Count)
system.cpu0.statIssuedInstType_0::SimdCvt         3975      0.00%     77.01% # Number of instructions issued per FU type, per thread (Count)
system.cpu0.statIssuedInstType_0::SimdMisc       265368      0.09%     77.10% # Number of instructions issued per FU type, per thread (Count)
system.cpu0.statIssuedInstType_0::SimdMult            0      0.00%     77.10% # Number of instructions issued per FU type, per thread (Count)
system.cpu0.statIssuedInstType_0::SimdMultAcc            0      0.00%     77.10% # Number of instructions issued per FU type, per thread (Count)
system.cpu0.statIssuedInstType_0::SimdShift         1390      0.00%     77.10% # Number of instructions issued per FU type, per thread (Count)
system.cpu0.statIssuedInstType_0::SimdShiftAcc            0      0.00%     77.10% # Number of instructions issued per FU type, per thread (Count)
system.cpu0.statIssuedInstType_0::SimdDiv            0      0.00%     77.10% # Number of instructions issued per FU type, per thread (Count)
system.cpu0.statIssuedInstType_0::SimdSqrt            0      0.00%     77.10% # Number of instructions issued per FU type, per thread (Count)
system.cpu0.statIssuedInstType_0::SimdFloatAdd     10597949      3.71%     80.81% # Number of instructions issued per FU type, per thread (Count)
system.cpu0.statIssuedInstType_0::SimdFloatAlu            0      0.00%     80.81% # Number of instructions issued per FU type, per thread (Count)
system.cpu0.statIssuedInstType_0::SimdFloatCmp            0      0.00%     80.81% # Number of instructions issued per FU type, per thread (Count)
system.cpu0.statIssuedInstType_0::SimdFloatCvt       262353      0.09%     80.91% # Number of instructions issued per FU type, per thread (Count)
system.cpu0.statIssuedInstType_0::SimdFloatDiv       296143      0.10%     81.01% # Number of instructions issued per FU type, per thread (Count)
system.cpu0.statIssuedInstType_0::SimdFloatMisc            0      0.00%     81.01% # Number of instructions issued per FU type, per thread (Count)
system.cpu0.statIssuedInstType_0::SimdFloatMult     10350038      3.63%     84.64% # Number of instructions issued per FU type, per thread (Count)
system.cpu0.statIssuedInstType_0::SimdFloatMultAcc            0      0.00%     84.64% # Number of instructions issued per FU type, per thread (Count)
system.cpu0.statIssuedInstType_0::SimdFloatSqrt            1      0.00%     84.64% # Number of instructions issued per FU type, per thread (Count)
system.cpu0.statIssuedInstType_0::SimdReduceAdd            0      0.00%     84.64% # Number of instructions issued per FU type, per thread (Count)
system.cpu0.statIssuedInstType_0::SimdReduceAlu            0      0.00%     84.64% # Number of instructions issued per FU type, per thread (Count)
system.cpu0.statIssuedInstType_0::SimdReduceCmp            0      0.00%     84.64% # Number of instructions issued per FU type, per thread (Count)
system.cpu0.statIssuedInstType_0::SimdFloatReduceAdd            0      0.00%     84.64% # Number of instructions issued per FU type, per thread (Count)
system.cpu0.statIssuedInstType_0::SimdFloatReduceCmp            0      0.00%     84.64% # Number of instructions issued per FU type, per thread (Count)
system.cpu0.statIssuedInstType_0::SimdAes            0      0.00%     84.64% # Number of instructions issued per FU type, per thread (Count)
system.cpu0.statIssuedInstType_0::SimdAesMix            0      0.00%     84.64% # Number of instructions issued per FU type, per thread (Count)
system.cpu0.statIssuedInstType_0::SimdSha1Hash            0      0.00%     84.64% # Number of instructions issued per FU type, per thread (Count)
system.cpu0.statIssuedInstType_0::SimdSha1Hash2            0      0.00%     84.64% # Number of instructions issued per FU type, per thread (Count)
system.cpu0.statIssuedInstType_0::SimdSha256Hash            0      0.00%     84.64% # Number of instructions issued per FU type, per thread (Count)
system.cpu0.statIssuedInstType_0::SimdSha256Hash2            0      0.00%     84.64% # Number of instructions issued per FU type, per thread (Count)
system.cpu0.statIssuedInstType_0::SimdShaSigma2            0      0.00%     84.64% # Number of instructions issued per FU type, per thread (Count)
system.cpu0.statIssuedInstType_0::SimdShaSigma3            0      0.00%     84.64% # Number of instructions issued per FU type, per thread (Count)
system.cpu0.statIssuedInstType_0::SimdPredAlu            0      0.00%     84.64% # Number of instructions issued per FU type, per thread (Count)
system.cpu0.statIssuedInstType_0::MemRead      7629011      2.67%     87.31% # Number of instructions issued per FU type, per thread (Count)
system.cpu0.statIssuedInstType_0::MemWrite      2443825      0.86%     88.16% # Number of instructions issued per FU type, per thread (Count)
system.cpu0.statIssuedInstType_0::FloatMemRead     22884736      8.02%     96.18% # Number of instructions issued per FU type, per thread (Count)
system.cpu0.statIssuedInstType_0::FloatMemWrite     10898079      3.82%    100.00% # Number of instructions issued per FU type, per thread (Count)
system.cpu0.statIssuedInstType_0::IprAccess            0      0.00%    100.00% # Number of instructions issued per FU type, per thread (Count)
system.cpu0.statIssuedInstType_0::InstPrefetch            0      0.00%    100.00% # Number of instructions issued per FU type, per thread (Count)
system.cpu0.statIssuedInstType_0::total     285427290                       # Number of instructions issued per FU type, per thread (Count)
system.cpu0.issueRate                        2.593964                       # Inst issue rate ((Count/Cycle))
system.cpu0.fuBusy                            1184638                       # FU busy when requested (Count)
system.cpu0.fuBusyRate                       0.004150                       # FU busy rate (busy events/executed inst) ((Count/Count))
system.cpu0.intInstQueueReads               542833325                       # Number of integer instruction queue reads (Count)
system.cpu0.intInstQueueWrites              218843504                       # Number of integer instruction queue writes (Count)
system.cpu0.intInstQueueWakeupAccesses      215227254                       # Number of integer instruction queue wakeup accesses (Count)
system.cpu0.fpInstQueueReads                139004030                       # Number of floating instruction queue reads (Count)
system.cpu0.fpInstQueueWrites                71460848                       # Number of floating instruction queue writes (Count)
system.cpu0.fpInstQueueWakeupAccesses        68093990                       # Number of floating instruction queue wakeup accesses (Count)
system.cpu0.vecInstQueueReads                       0                       # Number of vector instruction queue reads (Count)
system.cpu0.vecInstQueueWrites                      0                       # Number of vector instruction queue writes (Count)
system.cpu0.vecInstQueueWakeupAccesses              0                       # Number of vector instruction queue wakeup accesses (Count)
system.cpu0.intAluAccesses                  215252513                       # Number of integer alu accesses (Count)
system.cpu0.fpAluAccesses                    69542677                       # Number of floating point alu accesses (Count)
system.cpu0.vecAluAccesses                          0                       # Number of vector alu accesses (Count)
system.cpu0.numInsts                        283991334                       # Number of executed instructions (Count)
system.cpu0.numLoadInsts                     30461750                       # Number of load instructions executed (Count)
system.cpu0.numSquashedInsts                  1435956                       # Number of squashed instructions skipped in execute (Count)
system.cpu0.numSwp                                  0                       # Number of swp insts executed (Count)
system.cpu0.numNop                                  0                       # Number of nop insts executed (Count)
system.cpu0.numRefs                          43802256                       # Number of memory reference insts executed (Count)
system.cpu0.numBranches                      18489676                       # Number of branches executed (Count)
system.cpu0.numStoreInsts                    13340506                       # Number of stores executed (Count)
system.cpu0.numRate                          2.580914                       # Inst execution rate ((Count/Cycle))
system.cpu0.timesIdled                           1417                       # Number of times that the entire CPU went into an idle state and unscheduled itself (Count)
system.cpu0.idleCycles                         241900                       # Total number of cycles that the CPU has spent unscheduled due to idling (Cycle)
system.cpu0.quiesceCycles                    10457387                       # Total number of cycles that CPU has spent quiesced or waiting for an interrupt (Cycle)
system.cpu0.committedInsts                  130115798                       # Number of Instructions Simulated (Count)
system.cpu0.committedOps                    281662658                       # Number of Ops (including micro ops) Simulated (Count)
system.cpu0.cpi                              0.845671                       # CPI: Cycles Per Instruction ((Cycle/Count))
system.cpu0.totalCpi                         0.845671                       # CPI: Total CPI of All Threads ((Cycle/Count))
system.cpu0.ipc                              1.182493                       # IPC: Instructions Per Cycle ((Count/Cycle))
system.cpu0.totalIpc                         1.182493                       # IPC: Total IPC of All Threads ((Count/Cycle))
system.cpu0.intRegfileReads                 375859274                       # Number of integer regfile reads (Count)
system.cpu0.intRegfileWrites                201455095                       # Number of integer regfile writes (Count)
system.cpu0.fpRegfileReads                   79209402                       # Number of floating regfile reads (Count)
system.cpu0.fpRegfileWrites                  57236015                       # Number of floating regfile writes (Count)
system.cpu0.ccRegfileReads                  185297159                       # number of cc regfile reads (Count)
system.cpu0.ccRegfileWrites                 104033060                       # number of cc regfile writes (Count)
system.cpu0.miscRegfileReads                 78476008                       # number of misc regfile reads (Count)
system.cpu0.miscRegfileWrites                     108                       # number of misc regfile writes (Count)
system.cpu0.MemDepUnit__0.insertedLoads      30588873                       # Number of loads inserted to the mem dependence unit. (Count)
system.cpu0.MemDepUnit__0.insertedStores     13394724                       # Number of stores inserted to the mem dependence unit. (Count)
system.cpu0.MemDepUnit__0.conflictingLoads      3318497                       # Number of conflicting loads. (Count)
system.cpu0.MemDepUnit__0.conflictingStores      2545170                       # Number of conflicting stores. (Count)
system.cpu0.MemDepUnit__1.insertedLoads             0                       # Number of loads inserted to the mem dependence unit. (Count)
system.cpu0.MemDepUnit__1.insertedStores            0                       # Number of stores inserted to the mem dependence unit. (Count)
system.cpu0.MemDepUnit__1.conflictingLoads            0                       # Number of conflicting loads. (Count)
system.cpu0.MemDepUnit__1.conflictingStores            0                       # Number of conflicting stores. (Count)
system.cpu0.MemDepUnit__2.insertedLoads             0                       # Number of loads inserted to the mem dependence unit. (Count)
system.cpu0.MemDepUnit__2.insertedStores            0                       # Number of stores inserted to the mem dependence unit. (Count)
system.cpu0.MemDepUnit__2.conflictingLoads            0                       # Number of conflicting loads. (Count)
system.cpu0.MemDepUnit__2.conflictingStores            0                       # Number of conflicting stores. (Count)
system.cpu0.MemDepUnit__3.insertedLoads             0                       # Number of loads inserted to the mem dependence unit. (Count)
system.cpu0.MemDepUnit__3.insertedStores            0                       # Number of stores inserted to the mem dependence unit. (Count)
system.cpu0.MemDepUnit__3.conflictingLoads            0                       # Number of conflicting loads. (Count)
system.cpu0.MemDepUnit__3.conflictingStores            0                       # Number of conflicting stores. (Count)
system.cpu0.branchPred.lookups               19317929                       # Number of BP lookups (Count)
system.cpu0.branchPred.condPredicted         16918889                       # Number of conditional branches predicted (Count)
system.cpu0.branchPred.condIncorrect           693242                       # Number of conditional branches incorrect (Count)
system.cpu0.branchPred.BTBLookups            13417077                       # Number of BTB lookups (Count)
system.cpu0.branchPred.BTBHits               13413585                       # Number of BTB hits (Count)
system.cpu0.branchPred.BTBHitRatio           0.999740                       # BTB Hit Ratio (Ratio)
system.cpu0.branchPred.RASUsed                 794645                       # Number of times the RAS was used to get a target. (Count)
system.cpu0.branchPred.RASIncorrect                 8                       # Number of incorrect RAS predictions. (Count)
system.cpu0.branchPred.indirectLookups         268140                       # Number of indirect predictor lookups. (Count)
system.cpu0.branchPred.indirectHits            263702                       # Number of indirect target hits. (Count)
system.cpu0.branchPred.indirectMisses            4438                       # Number of indirect misses. (Count)
system.cpu0.branchPred.indirectMispredicted          754                       # Number of mispredicted indirect branches. (Count)
system.cpu0.commit.commitSquashedInsts        4289243                       # The number of squashed insts skipped by commit (Count)
system.cpu0.commit.commitNonSpecStalls           3108                       # The number of times commit has been forced to stall to communicate backwards (Count)
system.cpu0.commit.branchMispredicts           692906                       # The number of times a branch was mispredicted (Count)
system.cpu0.commit.numCommittedDist::samples    108921044                       # Number of insts commited each cycle (Count)
system.cpu0.commit.numCommittedDist::mean     2.585934                       # Number of insts commited each cycle (Count)
system.cpu0.commit.numCommittedDist::stdev     2.473645                       # Number of insts commited each cycle (Count)
system.cpu0.commit.numCommittedDist::underflows            0      0.00%      0.00% # Number of insts commited each cycle (Count)
system.cpu0.commit.numCommittedDist::0       11698879     10.74%     10.74% # Number of insts commited each cycle (Count)
system.cpu0.commit.numCommittedDist::1       49258640     45.22%     55.96% # Number of insts commited each cycle (Count)
system.cpu0.commit.numCommittedDist::2        9581027      8.80%     64.76% # Number of insts commited each cycle (Count)
system.cpu0.commit.numCommittedDist::3        5063451      4.65%     69.41% # Number of insts commited each cycle (Count)
system.cpu0.commit.numCommittedDist::4       10032824      9.21%     78.62% # Number of insts commited each cycle (Count)
system.cpu0.commit.numCommittedDist::5        2922696      2.68%     81.30% # Number of insts commited each cycle (Count)
system.cpu0.commit.numCommittedDist::6        9424502      8.65%     89.96% # Number of insts commited each cycle (Count)
system.cpu0.commit.numCommittedDist::7         752377      0.69%     90.65% # Number of insts commited each cycle (Count)
system.cpu0.commit.numCommittedDist::8       10186648      9.35%    100.00% # Number of insts commited each cycle (Count)
system.cpu0.commit.numCommittedDist::overflows            0      0.00%    100.00% # Number of insts commited each cycle (Count)
system.cpu0.commit.numCommittedDist::min_value            0                       # Number of insts commited each cycle (Count)
system.cpu0.commit.numCommittedDist::max_value            8                       # Number of insts commited each cycle (Count)
system.cpu0.commit.numCommittedDist::total    108921044                       # Number of insts commited each cycle (Count)
system.cpu0.commit.instsCommitted           130115798                       # Number of instructions committed (Count)
system.cpu0.commit.opsCommitted             281662658                       # Number of ops (including micro ops) committed (Count)
system.cpu0.commit.memRefs                   43061382                       # Number of memory references committed (Count)
system.cpu0.commit.loads                     29735873                       # Number of loads committed (Count)
system.cpu0.commit.amos                             0                       # Number of atomic instructions committed (Count)
system.cpu0.commit.membars                       2000                       # Number of memory barriers committed (Count)
system.cpu0.commit.branches                  18416044                       # Number of branches committed (Count)
system.cpu0.commit.vectorInstructions               0                       # Number of committed Vector instructions. (Count)
system.cpu0.commit.floating                  67929532                       # Number of committed floating point instructions. (Count)
system.cpu0.commit.integer                  243172214                       # Number of committed integer instructions. (Count)
system.cpu0.commit.functionCalls               791700                       # Number of function calls committed. (Count)
system.cpu0.commit.committedInstType_0::No_OpClass      1760027      0.62%      0.62% # Class of committed instruction (Count)
system.cpu0.commit.committedInstType_0::IntAlu    185853601     65.98%     66.61% # Class of committed instruction (Count)
system.cpu0.commit.committedInstType_0::IntMult      1326116      0.47%     67.08% # Class of committed instruction (Count)
system.cpu0.commit.committedInstType_0::IntDiv     14786539      5.25%     72.33% # Class of committed instruction (Count)
system.cpu0.commit.committedInstType_0::FloatAdd     11263648      4.00%     76.33% # Class of committed instruction (Count)
system.cpu0.commit.committedInstType_0::FloatCmp            0      0.00%     76.33% # Class of committed instruction (Count)
system.cpu0.commit.committedInstType_0::FloatCvt          192      0.00%     76.33% # Class of committed instruction (Count)
system.cpu0.commit.committedInstType_0::FloatMult            0      0.00%     76.33% # Class of committed instruction (Count)
system.cpu0.commit.committedInstType_0::FloatMultAcc            0      0.00%     76.33% # Class of committed instruction (Count)
system.cpu0.commit.committedInstType_0::FloatDiv            0      0.00%     76.33% # Class of committed instruction (Count)
system.cpu0.commit.committedInstType_0::FloatMisc            0      0.00%     76.33% # Class of committed instruction (Count)
system.cpu0.commit.committedInstType_0::FloatSqrt            0      0.00%     76.33% # Class of committed instruction (Count)
system.cpu0.commit.committedInstType_0::SimdAdd          976      0.00%     76.33% # Class of committed instruction (Count)
system.cpu0.commit.committedInstType_0::SimdAddAcc            0      0.00%     76.33% # Class of committed instruction (Count)
system.cpu0.commit.committedInstType_0::SimdAlu      1853846      0.66%     76.99% # Class of committed instruction (Count)
system.cpu0.commit.committedInstType_0::SimdCmp           34      0.00%     76.99% # Class of committed instruction (Count)
system.cpu0.commit.committedInstType_0::SimdCvt         2410      0.00%     76.99% # Class of committed instruction (Count)
system.cpu0.commit.committedInstType_0::SimdMisc       264619      0.09%     77.08% # Class of committed instruction (Count)
system.cpu0.commit.committedInstType_0::SimdMult            0      0.00%     77.08% # Class of committed instruction (Count)
system.cpu0.commit.committedInstType_0::SimdMultAcc            0      0.00%     77.08% # Class of committed instruction (Count)
system.cpu0.commit.committedInstType_0::SimdShift          549      0.00%     77.08% # Class of committed instruction (Count)
system.cpu0.commit.committedInstType_0::SimdShiftAcc            0      0.00%     77.08% # Class of committed instruction (Count)
system.cpu0.commit.committedInstType_0::SimdDiv            0      0.00%     77.08% # Class of committed instruction (Count)
system.cpu0.commit.committedInstType_0::SimdSqrt            0      0.00%     77.08% # Class of committed instruction (Count)
system.cpu0.commit.committedInstType_0::SimdFloatAdd     10596160      3.76%     80.84% # Class of committed instruction (Count)
system.cpu0.commit.committedInstType_0::SimdFloatAlu            0      0.00%     80.84% # Class of committed instruction (Count)
system.cpu0.commit.committedInstType_0::SimdFloatCmp            0      0.00%     80.84% # Class of committed instruction (Count)
system.cpu0.commit.committedInstType_0::SimdFloatCvt       262286      0.09%     80.94% # Class of committed instruction (Count)
system.cpu0.commit.committedInstType_0::SimdFloatDiv       295872      0.11%     81.04% # Class of committed instruction (Count)
system.cpu0.commit.committedInstType_0::SimdFloatMisc            0      0.00%     81.04% # Class of committed instruction (Count)
system.cpu0.commit.committedInstType_0::SimdFloatMult     10334400      3.67%     84.71% # Class of committed instruction (Count)
system.cpu0.commit.committedInstType_0::SimdFloatMultAcc            0      0.00%     84.71% # Class of committed instruction (Count)
system.cpu0.commit.committedInstType_0::SimdFloatSqrt            1      0.00%     84.71% # Class of committed instruction (Count)
system.cpu0.commit.committedInstType_0::SimdReduceAdd            0      0.00%     84.71% # Class of committed instruction (Count)
system.cpu0.commit.committedInstType_0::SimdReduceAlu            0      0.00%     84.71% # Class of committed instruction (Count)
system.cpu0.commit.committedInstType_0::SimdReduceCmp            0      0.00%     84.71% # Class of committed instruction (Count)
system.cpu0.commit.committedInstType_0::SimdFloatReduceAdd            0      0.00%     84.71% # Class of committed instruction (Count)
system.cpu0.commit.committedInstType_0::SimdFloatReduceCmp            0      0.00%     84.71% # Class of committed instruction (Count)
system.cpu0.commit.committedInstType_0::SimdAes            0      0.00%     84.71% # Class of committed instruction (Count)
system.cpu0.commit.committedInstType_0::SimdAesMix            0      0.00%     84.71% # Class of committed instruction (Count)
system.cpu0.commit.committedInstType_0::SimdSha1Hash            0      0.00%     84.71% # Class of committed instruction (Count)
system.cpu0.commit.committedInstType_0::SimdSha1Hash2            0      0.00%     84.71% # Class of committed instruction (Count)
system.cpu0.commit.committedInstType_0::SimdSha256Hash            0      0.00%     84.71% # Class of committed instruction (Count)
system.cpu0.commit.committedInstType_0::SimdSha256Hash2            0      0.00%     84.71% # Class of committed instruction (Count)
system.cpu0.commit.committedInstType_0::SimdShaSigma2            0      0.00%     84.71% # Class of committed instruction (Count)
system.cpu0.commit.committedInstType_0::SimdShaSigma3            0      0.00%     84.71% # Class of committed instruction (Count)
system.cpu0.commit.committedInstType_0::SimdPredAlu            0      0.00%     84.71% # Class of committed instruction (Count)
system.cpu0.commit.committedInstType_0::MemRead      7577354      2.69%     87.40% # Class of committed instruction (Count)
system.cpu0.commit.committedInstType_0::MemWrite      2430208      0.86%     88.26% # Class of committed instruction (Count)
system.cpu0.commit.committedInstType_0::FloatMemRead     22158519      7.87%     96.13% # Class of committed instruction (Count)
system.cpu0.commit.committedInstType_0::FloatMemWrite     10895301      3.87%    100.00% # Class of committed instruction (Count)
system.cpu0.commit.committedInstType_0::IprAccess            0      0.00%    100.00% # Class of committed instruction (Count)
system.cpu0.commit.committedInstType_0::InstPrefetch            0      0.00%    100.00% # Class of committed instruction (Count)
system.cpu0.commit.committedInstType_0::total    281662658                       # Class of committed instruction (Count)
system.cpu0.commit.commitEligibleSamples     10186648                       # number cycles where commit BW limit reached (Cycle)
system.cpu0.dcache.demandHits::cpu0.data     41068586                       # number of demand (read+write) hits (Count)
system.cpu0.dcache.demandHits::total         41068586                       # number of demand (read+write) hits (Count)
system.cpu0.dcache.overallHits::cpu0.data     41068586                       # number of overall hits (Count)
system.cpu0.dcache.overallHits::total        41068586                       # number of overall hits (Count)
system.cpu0.dcache.demandMisses::cpu0.data       277346                       # number of demand (read+write) misses (Count)
system.cpu0.dcache.demandMisses::total         277346                       # number of demand (read+write) misses (Count)
system.cpu0.dcache.overallMisses::cpu0.data       277346                       # number of overall misses (Count)
system.cpu0.dcache.overallMisses::total        277346                       # number of overall misses (Count)
system.cpu0.dcache.demandMissLatency::cpu0.data   6287886812                       # number of demand (read+write) miss ticks (Tick)
system.cpu0.dcache.demandMissLatency::total   6287886812                       # number of demand (read+write) miss ticks (Tick)
system.cpu0.dcache.overallMissLatency::cpu0.data   6287886812                       # number of overall miss ticks (Tick)
system.cpu0.dcache.overallMissLatency::total   6287886812                       # number of overall miss ticks (Tick)
system.cpu0.dcache.demandAccesses::cpu0.data     41345932                       # number of demand (read+write) accesses (Count)
system.cpu0.dcache.demandAccesses::total     41345932                       # number of demand (read+write) accesses (Count)
system.cpu0.dcache.overallAccesses::cpu0.data     41345932                       # number of overall (read+write) accesses (Count)
system.cpu0.dcache.overallAccesses::total     41345932                       # number of overall (read+write) accesses (Count)
system.cpu0.dcache.demandMissRate::cpu0.data     0.006708                       # miss rate for demand accesses (Ratio)
system.cpu0.dcache.demandMissRate::total     0.006708                       # miss rate for demand accesses (Ratio)
system.cpu0.dcache.overallMissRate::cpu0.data     0.006708                       # miss rate for overall accesses (Ratio)
system.cpu0.dcache.overallMissRate::total     0.006708                       # miss rate for overall accesses (Ratio)
system.cpu0.dcache.demandAvgMissLatency::cpu0.data 22671.633310                       # average overall miss latency in ticks ((Tick/Count))
system.cpu0.dcache.demandAvgMissLatency::total 22671.633310                       # average overall miss latency in ticks ((Tick/Count))
system.cpu0.dcache.overallAvgMissLatency::cpu0.data 22671.633310                       # average overall miss latency ((Tick/Count))
system.cpu0.dcache.overallAvgMissLatency::total 22671.633310                       # average overall miss latency ((Tick/Count))
system.cpu0.dcache.blockedCycles::no_mshrs        32371                       # number of cycles access was blocked (Cycle)
system.cpu0.dcache.blockedCycles::no_targets           54                       # number of cycles access was blocked (Cycle)
system.cpu0.dcache.blockedCauses::no_mshrs          636                       # number of times access was blocked (Count)
system.cpu0.dcache.blockedCauses::no_targets            3                       # number of times access was blocked (Count)
system.cpu0.dcache.avgBlocked::no_mshrs     50.897799                       # average number of cycles each access was blocked ((Cycle/Count))
system.cpu0.dcache.avgBlocked::no_targets           18                       # average number of cycles each access was blocked ((Cycle/Count))
system.cpu0.dcache.writebacks::writebacks       153849                       # number of writebacks (Count)
system.cpu0.dcache.writebacks::total           153849                       # number of writebacks (Count)
system.cpu0.dcache.demandMshrHits::cpu0.data        27220                       # number of demand (read+write) MSHR hits (Count)
system.cpu0.dcache.demandMshrHits::total        27220                       # number of demand (read+write) MSHR hits (Count)
system.cpu0.dcache.overallMshrHits::cpu0.data        27220                       # number of overall MSHR hits (Count)
system.cpu0.dcache.overallMshrHits::total        27220                       # number of overall MSHR hits (Count)
system.cpu0.dcache.demandMshrMisses::cpu0.data       250126                       # number of demand (read+write) MSHR misses (Count)
system.cpu0.dcache.demandMshrMisses::total       250126                       # number of demand (read+write) MSHR misses (Count)
system.cpu0.dcache.overallMshrMisses::cpu0.data       250126                       # number of overall MSHR misses (Count)
system.cpu0.dcache.overallMshrMisses::total       250126                       # number of overall MSHR misses (Count)
system.cpu0.dcache.demandMshrMissLatency::cpu0.data   5265109613                       # number of demand (read+write) MSHR miss ticks (Tick)
system.cpu0.dcache.demandMshrMissLatency::total   5265109613                       # number of demand (read+write) MSHR miss ticks (Tick)
system.cpu0.dcache.overallMshrMissLatency::cpu0.data   5265109613                       # number of overall MSHR miss ticks (Tick)
system.cpu0.dcache.overallMshrMissLatency::total   5265109613                       # number of overall MSHR miss ticks (Tick)
system.cpu0.dcache.demandMshrMissRate::cpu0.data     0.006050                       # mshr miss ratio for demand accesses (Ratio)
system.cpu0.dcache.demandMshrMissRate::total     0.006050                       # mshr miss ratio for demand accesses (Ratio)
system.cpu0.dcache.overallMshrMissRate::cpu0.data     0.006050                       # mshr miss ratio for overall accesses (Ratio)
system.cpu0.dcache.overallMshrMissRate::total     0.006050                       # mshr miss ratio for overall accesses (Ratio)
system.cpu0.dcache.demandAvgMshrMissLatency::cpu0.data 21049.829338                       # average overall mshr miss latency ((Tick/Count))
system.cpu0.dcache.demandAvgMshrMissLatency::total 21049.829338                       # average overall mshr miss latency ((Tick/Count))
system.cpu0.dcache.overallAvgMshrMissLatency::cpu0.data 21049.829338                       # average overall mshr miss latency ((Tick/Count))
system.cpu0.dcache.overallAvgMshrMissLatency::total 21049.829338                       # average overall mshr miss latency ((Tick/Count))
system.cpu0.dcache.replacements                241073                       # number of replacements (Count)
system.cpu0.dcache.LockedRMWReadReq.hits::cpu0.data          612                       # number of LockedRMWReadReq hits (Count)
system.cpu0.dcache.LockedRMWReadReq.hits::total          612                       # number of LockedRMWReadReq hits (Count)
system.cpu0.dcache.LockedRMWReadReq.misses::cpu0.data          388                       # number of LockedRMWReadReq misses (Count)
system.cpu0.dcache.LockedRMWReadReq.misses::total          388                       # number of LockedRMWReadReq misses (Count)
system.cpu0.dcache.LockedRMWReadReq.missLatency::cpu0.data     11409912                       # number of LockedRMWReadReq miss ticks (Tick)
system.cpu0.dcache.LockedRMWReadReq.missLatency::total     11409912                       # number of LockedRMWReadReq miss ticks (Tick)
system.cpu0.dcache.LockedRMWReadReq.accesses::cpu0.data         1000                       # number of LockedRMWReadReq accesses(hits+misses) (Count)
system.cpu0.dcache.LockedRMWReadReq.accesses::total         1000                       # number of LockedRMWReadReq accesses(hits+misses) (Count)
system.cpu0.dcache.LockedRMWReadReq.missRate::cpu0.data     0.388000                       # miss rate for LockedRMWReadReq accesses (Ratio)
system.cpu0.dcache.LockedRMWReadReq.missRate::total     0.388000                       # miss rate for LockedRMWReadReq accesses (Ratio)
system.cpu0.dcache.LockedRMWReadReq.avgMissLatency::cpu0.data 29406.989691                       # average LockedRMWReadReq miss latency ((Tick/Count))
system.cpu0.dcache.LockedRMWReadReq.avgMissLatency::total 29406.989691                       # average LockedRMWReadReq miss latency ((Tick/Count))
system.cpu0.dcache.LockedRMWReadReq.mshrMisses::cpu0.data          388                       # number of LockedRMWReadReq MSHR misses (Count)
system.cpu0.dcache.LockedRMWReadReq.mshrMisses::total          388                       # number of LockedRMWReadReq MSHR misses (Count)
system.cpu0.dcache.LockedRMWReadReq.mshrMissLatency::cpu0.data     25164810                       # number of LockedRMWReadReq MSHR miss ticks (Tick)
system.cpu0.dcache.LockedRMWReadReq.mshrMissLatency::total     25164810                       # number of LockedRMWReadReq MSHR miss ticks (Tick)
system.cpu0.dcache.LockedRMWReadReq.mshrMissRate::cpu0.data     0.388000                       # mshr miss rate for LockedRMWReadReq accesses (Ratio)
system.cpu0.dcache.LockedRMWReadReq.mshrMissRate::total     0.388000                       # mshr miss rate for LockedRMWReadReq accesses (Ratio)
system.cpu0.dcache.LockedRMWReadReq.avgMshrMissLatency::cpu0.data 64857.757732                       # average LockedRMWReadReq mshr miss latency ((Tick/Count))
system.cpu0.dcache.LockedRMWReadReq.avgMshrMissLatency::total 64857.757732                       # average LockedRMWReadReq mshr miss latency ((Tick/Count))
system.cpu0.dcache.LockedRMWWriteReq.hits::cpu0.data         1000                       # number of LockedRMWWriteReq hits (Count)
system.cpu0.dcache.LockedRMWWriteReq.hits::total         1000                       # number of LockedRMWWriteReq hits (Count)
system.cpu0.dcache.LockedRMWWriteReq.accesses::cpu0.data         1000                       # number of LockedRMWWriteReq accesses(hits+misses) (Count)
system.cpu0.dcache.LockedRMWWriteReq.accesses::total         1000                       # number of LockedRMWWriteReq accesses(hits+misses) (Count)
system.cpu0.dcache.ReadReq.hits::cpu0.data     27785499                       # number of ReadReq hits (Count)
system.cpu0.dcache.ReadReq.hits::total       27785499                       # number of ReadReq hits (Count)
system.cpu0.dcache.ReadReq.misses::cpu0.data       235913                       # number of ReadReq misses (Count)
system.cpu0.dcache.ReadReq.misses::total       235913                       # number of ReadReq misses (Count)
system.cpu0.dcache.ReadReq.missLatency::cpu0.data   3197517948                       # number of ReadReq miss ticks (Tick)
system.cpu0.dcache.ReadReq.missLatency::total   3197517948                       # number of ReadReq miss ticks (Tick)
system.cpu0.dcache.ReadReq.accesses::cpu0.data     28021412                       # number of ReadReq accesses(hits+misses) (Count)
system.cpu0.dcache.ReadReq.accesses::total     28021412                       # number of ReadReq accesses(hits+misses) (Count)
system.cpu0.dcache.ReadReq.missRate::cpu0.data     0.008419                       # miss rate for ReadReq accesses (Ratio)
system.cpu0.dcache.ReadReq.missRate::total     0.008419                       # miss rate for ReadReq accesses (Ratio)
system.cpu0.dcache.ReadReq.avgMissLatency::cpu0.data 13553.801393                       # average ReadReq miss latency ((Tick/Count))
system.cpu0.dcache.ReadReq.avgMissLatency::total 13553.801393                       # average ReadReq miss latency ((Tick/Count))
system.cpu0.dcache.ReadReq.mshrHits::cpu0.data        27214                       # number of ReadReq MSHR hits (Count)
system.cpu0.dcache.ReadReq.mshrHits::total        27214                       # number of ReadReq MSHR hits (Count)
system.cpu0.dcache.ReadReq.mshrMisses::cpu0.data       208699                       # number of ReadReq MSHR misses (Count)
system.cpu0.dcache.ReadReq.mshrMisses::total       208699                       # number of ReadReq MSHR misses (Count)
system.cpu0.dcache.ReadReq.mshrMissLatency::cpu0.data   2202647481                       # number of ReadReq MSHR miss ticks (Tick)
system.cpu0.dcache.ReadReq.mshrMissLatency::total   2202647481                       # number of ReadReq MSHR miss ticks (Tick)
system.cpu0.dcache.ReadReq.mshrMissRate::cpu0.data     0.007448                       # mshr miss rate for ReadReq accesses (Ratio)
system.cpu0.dcache.ReadReq.mshrMissRate::total     0.007448                       # mshr miss rate for ReadReq accesses (Ratio)
system.cpu0.dcache.ReadReq.avgMshrMissLatency::cpu0.data 10554.183206                       # average ReadReq mshr miss latency ((Tick/Count))
system.cpu0.dcache.ReadReq.avgMshrMissLatency::total 10554.183206                       # average ReadReq mshr miss latency ((Tick/Count))
system.cpu0.dcache.WriteReq.hits::cpu0.data     13283087                       # number of WriteReq hits (Count)
system.cpu0.dcache.WriteReq.hits::total      13283087                       # number of WriteReq hits (Count)
system.cpu0.dcache.WriteReq.misses::cpu0.data        41433                       # number of WriteReq misses (Count)
system.cpu0.dcache.WriteReq.misses::total        41433                       # number of WriteReq misses (Count)
system.cpu0.dcache.WriteReq.missLatency::cpu0.data   3090368864                       # number of WriteReq miss ticks (Tick)
system.cpu0.dcache.WriteReq.missLatency::total   3090368864                       # number of WriteReq miss ticks (Tick)
system.cpu0.dcache.WriteReq.accesses::cpu0.data     13324520                       # number of WriteReq accesses(hits+misses) (Count)
system.cpu0.dcache.WriteReq.accesses::total     13324520                       # number of WriteReq accesses(hits+misses) (Count)
system.cpu0.dcache.WriteReq.missRate::cpu0.data     0.003110                       # miss rate for WriteReq accesses (Ratio)
system.cpu0.dcache.WriteReq.missRate::total     0.003110                       # miss rate for WriteReq accesses (Ratio)
system.cpu0.dcache.WriteReq.avgMissLatency::cpu0.data 74587.137403                       # average WriteReq miss latency ((Tick/Count))
system.cpu0.dcache.WriteReq.avgMissLatency::total 74587.137403                       # average WriteReq miss latency ((Tick/Count))
system.cpu0.dcache.WriteReq.mshrHits::cpu0.data            6                       # number of WriteReq MSHR hits (Count)
system.cpu0.dcache.WriteReq.mshrHits::total            6                       # number of WriteReq MSHR hits (Count)
system.cpu0.dcache.WriteReq.mshrMisses::cpu0.data        41427                       # number of WriteReq MSHR misses (Count)
system.cpu0.dcache.WriteReq.mshrMisses::total        41427                       # number of WriteReq MSHR misses (Count)
system.cpu0.dcache.WriteReq.mshrMissLatency::cpu0.data   3062462132                       # number of WriteReq MSHR miss ticks (Tick)
system.cpu0.dcache.WriteReq.mshrMissLatency::total   3062462132                       # number of WriteReq MSHR miss ticks (Tick)
system.cpu0.dcache.WriteReq.mshrMissRate::cpu0.data     0.003109                       # mshr miss rate for WriteReq accesses (Ratio)
system.cpu0.dcache.WriteReq.mshrMissRate::total     0.003109                       # mshr miss rate for WriteReq accesses (Ratio)
system.cpu0.dcache.WriteReq.avgMshrMissLatency::cpu0.data 73924.303763                       # average WriteReq mshr miss latency ((Tick/Count))
system.cpu0.dcache.WriteReq.avgMshrMissLatency::total 73924.303763                       # average WriteReq mshr miss latency ((Tick/Count))
system.cpu0.dcache.power_state.pwrStateResidencyTicks::UNDEFINED  40124021148                       # Cumulative time (in ticks) in various power states (Tick)
system.cpu0.dcache.tags.tagsInUse          511.413302                       # Average ticks per tags in use ((Tick/Count))
system.cpu0.dcache.tags.totalRefs            41324987                       # Total number of references to valid blocks. (Count)
system.cpu0.dcache.tags.sampledRefs            242863                       # Sample count of references to valid blocks. (Count)
system.cpu0.dcache.tags.avgRefs            170.157607                       # Average number of references to valid blocks. ((Count/Count))
system.cpu0.dcache.tags.warmupTick             189144                       # The tick when the warmup percentage was hit. (Tick)
system.cpu0.dcache.tags.occupancies::cpu0.data   511.413302                       # Average occupied blocks per tick, per requestor ((Count/Tick))
system.cpu0.dcache.tags.avgOccs::cpu0.data     0.998854                       # Average percentage of cache occupancy ((Ratio/Tick))
system.cpu0.dcache.tags.avgOccs::total       0.998854                       # Average percentage of cache occupancy ((Ratio/Tick))
system.cpu0.dcache.tags.occupanciesTaskId::1024          506                       # Occupied blocks per task id (Count)
system.cpu0.dcache.tags.ageTaskId_1024::0           96                       # Occupied blocks per task id, per block age (Count)
system.cpu0.dcache.tags.ageTaskId_1024::1          159                       # Occupied blocks per task id, per block age (Count)
system.cpu0.dcache.tags.ageTaskId_1024::2          243                       # Occupied blocks per task id, per block age (Count)
system.cpu0.dcache.tags.ageTaskId_1024::4            8                       # Occupied blocks per task id, per block age (Count)
system.cpu0.dcache.tags.ratioOccsTaskId::1024     0.988281                       # Ratio of occupied blocks and all blocks, per task id (Ratio)
system.cpu0.dcache.tags.tagAccesses         331026319                       # Number of tag accesses (Count)
system.cpu0.dcache.tags.dataAccesses        331026319                       # Number of data accesses (Count)
system.cpu0.dcache.tags.power_state.pwrStateResidencyTicks::UNDEFINED  40124021148                       # Cumulative time (in ticks) in various power states (Tick)
system.cpu0.decode.idleCycles                28051195                       # Number of cycles decode is idle (Cycle)
system.cpu0.decode.blockedCycles             31106277                       # Number of cycles decode is blocked (Cycle)
system.cpu0.decode.runCycles                 37771399                       # Number of cycles decode is running (Cycle)
system.cpu0.decode.unblockCycles             12169462                       # Number of cycles decode is unblocking (Cycle)
system.cpu0.decode.squashCycles                694937                       # Number of cycles decode is squashing (Cycle)
system.cpu0.decode.branchResolved            13345166                       # Number of times decode resolved a branch (Count)
system.cpu0.decode.branchMispred                  979                       # Number of times decode detected a branch misprediction (Count)
system.cpu0.decode.decodedInsts             292885106                       # Number of instructions handled by decode (Count)
system.cpu0.decode.squashedInsts                 4692                       # Number of squashed instructions handled by decode (Count)
system.cpu0.dtb_walker_cache.blockedCycles::no_mshrs            0                       # number of cycles access was blocked (Cycle)
system.cpu0.dtb_walker_cache.blockedCycles::no_targets            0                       # number of cycles access was blocked (Cycle)
system.cpu0.dtb_walker_cache.blockedCauses::no_mshrs            0                       # number of times access was blocked (Count)
system.cpu0.dtb_walker_cache.blockedCauses::no_targets            0                       # number of times access was blocked (Count)
system.cpu0.dtb_walker_cache.avgBlocked::no_mshrs          nan                       # average number of cycles each access was blocked ((Cycle/Count))
system.cpu0.dtb_walker_cache.avgBlocked::no_targets          nan                       # average number of cycles each access was blocked ((Cycle/Count))
system.cpu0.dtb_walker_cache.replacements            0                       # number of replacements (Count)
system.cpu0.dtb_walker_cache.power_state.pwrStateResidencyTicks::UNDEFINED  40124021148                       # Cumulative time (in ticks) in various power states (Tick)
system.cpu0.dtb_walker_cache.tags.tagsInUse            0                       # Average ticks per tags in use ((Tick/Count))
system.cpu0.dtb_walker_cache.tags.totalRefs            0                       # Total number of references to valid blocks. (Count)
system.cpu0.dtb_walker_cache.tags.sampledRefs            0                       # Sample count of references to valid blocks. (Count)
system.cpu0.dtb_walker_cache.tags.avgRefs          nan                       # Average number of references to valid blocks. ((Count/Count))
system.cpu0.dtb_walker_cache.tags.warmupTick            0                       # The tick when the warmup percentage was hit. (Tick)
system.cpu0.dtb_walker_cache.tags.tagAccesses            0                       # Number of tag accesses (Count)
system.cpu0.dtb_walker_cache.tags.dataAccesses            0                       # Number of data accesses (Count)
system.cpu0.dtb_walker_cache.tags.power_state.pwrStateResidencyTicks::UNDEFINED  40124021148                       # Cumulative time (in ticks) in various power states (Tick)
system.cpu0.fetch.icacheStallCycles          28361567                       # Number of cycles fetch is stalled on an Icache miss (Cycle)
system.cpu0.fetch.insts                     138467053                       # Number of instructions fetch has processed (Count)
system.cpu0.fetch.branches                   19317929                       # Number of branches that fetch encountered (Count)
system.cpu0.fetch.predictedBranches          14471932                       # Number of branches that fetch has predicted taken (Count)
system.cpu0.fetch.cycles                     80730574                       # Number of cycles fetch has run and was not squashing or blocked (Cycle)
system.cpu0.fetch.squashCycles                1391784                       # Number of cycles fetch has spent squashing (Cycle)
system.cpu0.fetch.miscStallCycles                 661                       # Number of cycles fetch has spent waiting on interrupts, or bad addresses, or out of MSHRs (Cycle)
system.cpu0.fetch.pendingTrapStallCycles         4544                       # Number of stall cycles due to pending traps (Cycle)
system.cpu0.fetch.icacheWaitRetryStallCycles           32                       # Number of stall cycles due to full MSHR (Cycle)
system.cpu0.fetch.cacheLines                 28259882                       # Number of cache lines fetched (Count)
system.cpu0.fetch.icacheSquashes               639130                       # Number of outstanding Icache misses that were squashed (Count)
system.cpu0.fetch.nisnDist::samples         109793270                       # Number of instructions fetched each cycle (Total) (Count)
system.cpu0.fetch.nisnDist::mean             2.702158                       # Number of instructions fetched each cycle (Total) (Count)
system.cpu0.fetch.nisnDist::stdev            3.285661                       # Number of instructions fetched each cycle (Total) (Count)
system.cpu0.fetch.nisnDist::underflows              0      0.00%      0.00% # Number of instructions fetched each cycle (Total) (Count)
system.cpu0.fetch.nisnDist::0                55842512     50.86%     50.86% # Number of instructions fetched each cycle (Total) (Count)
system.cpu0.fetch.nisnDist::1                 1049412      0.96%     51.82% # Number of instructions fetched each cycle (Total) (Count)
system.cpu0.fetch.nisnDist::2                11281277     10.28%     62.09% # Number of instructions fetched each cycle (Total) (Count)
system.cpu0.fetch.nisnDist::3                  941013      0.86%     62.95% # Number of instructions fetched each cycle (Total) (Count)
system.cpu0.fetch.nisnDist::4                12644032     11.52%     74.47% # Number of instructions fetched each cycle (Total) (Count)
system.cpu0.fetch.nisnDist::5                  603770      0.55%     75.02% # Number of instructions fetched each cycle (Total) (Count)
system.cpu0.fetch.nisnDist::6                  664865      0.61%     75.62% # Number of instructions fetched each cycle (Total) (Count)
system.cpu0.fetch.nisnDist::7                 1471514      1.34%     76.96% # Number of instructions fetched each cycle (Total) (Count)
system.cpu0.fetch.nisnDist::8                25294875     23.04%    100.00% # Number of instructions fetched each cycle (Total) (Count)
system.cpu0.fetch.nisnDist::overflows               0      0.00%    100.00% # Number of instructions fetched each cycle (Total) (Count)
system.cpu0.fetch.nisnDist::min_value               0                       # Number of instructions fetched each cycle (Total) (Count)
system.cpu0.fetch.nisnDist::max_value               8                       # Number of instructions fetched each cycle (Total) (Count)
system.cpu0.fetch.nisnDist::total           109793270                       # Number of instructions fetched each cycle (Total) (Count)
system.cpu0.fetch.branchRate                 0.175561                       # Number of branch fetches per cycle (Ratio)
system.cpu0.fetch.rate                       1.258389                       # Number of inst fetches per cycle ((Count/Cycle))
system.cpu0.icache.demandHits::cpu0.inst     28257228                       # number of demand (read+write) hits (Count)
system.cpu0.icache.demandHits::total         28257228                       # number of demand (read+write) hits (Count)
system.cpu0.icache.overallHits::cpu0.inst     28257228                       # number of overall hits (Count)
system.cpu0.icache.overallHits::total        28257228                       # number of overall hits (Count)
system.cpu0.icache.demandMisses::cpu0.inst         2654                       # number of demand (read+write) misses (Count)
system.cpu0.icache.demandMisses::total           2654                       # number of demand (read+write) misses (Count)
system.cpu0.icache.overallMisses::cpu0.inst         2654                       # number of overall misses (Count)
system.cpu0.icache.overallMisses::total          2654                       # number of overall misses (Count)
system.cpu0.icache.demandMissLatency::cpu0.inst    205953839                       # number of demand (read+write) miss ticks (Tick)
system.cpu0.icache.demandMissLatency::total    205953839                       # number of demand (read+write) miss ticks (Tick)
system.cpu0.icache.overallMissLatency::cpu0.inst    205953839                       # number of overall miss ticks (Tick)
system.cpu0.icache.overallMissLatency::total    205953839                       # number of overall miss ticks (Tick)
system.cpu0.icache.demandAccesses::cpu0.inst     28259882                       # number of demand (read+write) accesses (Count)
system.cpu0.icache.demandAccesses::total     28259882                       # number of demand (read+write) accesses (Count)
system.cpu0.icache.overallAccesses::cpu0.inst     28259882                       # number of overall (read+write) accesses (Count)
system.cpu0.icache.overallAccesses::total     28259882                       # number of overall (read+write) accesses (Count)
system.cpu0.icache.demandMissRate::cpu0.inst     0.000094                       # miss rate for demand accesses (Ratio)
system.cpu0.icache.demandMissRate::total     0.000094                       # miss rate for demand accesses (Ratio)
system.cpu0.icache.overallMissRate::cpu0.inst     0.000094                       # miss rate for overall accesses (Ratio)
system.cpu0.icache.overallMissRate::total     0.000094                       # miss rate for overall accesses (Ratio)
system.cpu0.icache.demandAvgMissLatency::cpu0.inst 77601.295780                       # average overall miss latency in ticks ((Tick/Count))
system.cpu0.icache.demandAvgMissLatency::total 77601.295780                       # average overall miss latency in ticks ((Tick/Count))
system.cpu0.icache.overallAvgMissLatency::cpu0.inst 77601.295780                       # average overall miss latency ((Tick/Count))
system.cpu0.icache.overallAvgMissLatency::total 77601.295780                       # average overall miss latency ((Tick/Count))
system.cpu0.icache.blockedCycles::no_mshrs          783                       # number of cycles access was blocked (Cycle)
system.cpu0.icache.blockedCycles::no_targets            0                       # number of cycles access was blocked (Cycle)
system.cpu0.icache.blockedCauses::no_mshrs            7                       # number of times access was blocked (Count)
system.cpu0.icache.blockedCauses::no_targets            0                       # number of times access was blocked (Count)
system.cpu0.icache.avgBlocked::no_mshrs    111.857143                       # average number of cycles each access was blocked ((Cycle/Count))
system.cpu0.icache.avgBlocked::no_targets          nan                       # average number of cycles each access was blocked ((Cycle/Count))
system.cpu0.icache.writebacks::writebacks         1485                       # number of writebacks (Count)
system.cpu0.icache.writebacks::total             1485                       # number of writebacks (Count)
system.cpu0.icache.demandMshrHits::cpu0.inst          656                       # number of demand (read+write) MSHR hits (Count)
system.cpu0.icache.demandMshrHits::total          656                       # number of demand (read+write) MSHR hits (Count)
system.cpu0.icache.overallMshrHits::cpu0.inst          656                       # number of overall MSHR hits (Count)
system.cpu0.icache.overallMshrHits::total          656                       # number of overall MSHR hits (Count)
system.cpu0.icache.demandMshrMisses::cpu0.inst         1998                       # number of demand (read+write) MSHR misses (Count)
system.cpu0.icache.demandMshrMisses::total         1998                       # number of demand (read+write) MSHR misses (Count)
system.cpu0.icache.overallMshrMisses::cpu0.inst         1998                       # number of overall MSHR misses (Count)
system.cpu0.icache.overallMshrMisses::total         1998                       # number of overall MSHR misses (Count)
system.cpu0.icache.demandMshrMissLatency::cpu0.inst    158749424                       # number of demand (read+write) MSHR miss ticks (Tick)
system.cpu0.icache.demandMshrMissLatency::total    158749424                       # number of demand (read+write) MSHR miss ticks (Tick)
system.cpu0.icache.overallMshrMissLatency::cpu0.inst    158749424                       # number of overall MSHR miss ticks (Tick)
system.cpu0.icache.overallMshrMissLatency::total    158749424                       # number of overall MSHR miss ticks (Tick)
system.cpu0.icache.demandMshrMissRate::cpu0.inst     0.000071                       # mshr miss ratio for demand accesses (Ratio)
system.cpu0.icache.demandMshrMissRate::total     0.000071                       # mshr miss ratio for demand accesses (Ratio)
system.cpu0.icache.overallMshrMissRate::cpu0.inst     0.000071                       # mshr miss ratio for overall accesses (Ratio)
system.cpu0.icache.overallMshrMissRate::total     0.000071                       # mshr miss ratio for overall accesses (Ratio)
system.cpu0.icache.demandAvgMshrMissLatency::cpu0.inst 79454.166166                       # average overall mshr miss latency ((Tick/Count))
system.cpu0.icache.demandAvgMshrMissLatency::total 79454.166166                       # average overall mshr miss latency ((Tick/Count))
system.cpu0.icache.overallAvgMshrMissLatency::cpu0.inst 79454.166166                       # average overall mshr miss latency ((Tick/Count))
system.cpu0.icache.overallAvgMshrMissLatency::total 79454.166166                       # average overall mshr miss latency ((Tick/Count))
system.cpu0.icache.replacements                  1485                       # number of replacements (Count)
system.cpu0.icache.ReadReq.hits::cpu0.inst     28257228                       # number of ReadReq hits (Count)
system.cpu0.icache.ReadReq.hits::total       28257228                       # number of ReadReq hits (Count)
system.cpu0.icache.ReadReq.misses::cpu0.inst         2654                       # number of ReadReq misses (Count)
system.cpu0.icache.ReadReq.misses::total         2654                       # number of ReadReq misses (Count)
system.cpu0.icache.ReadReq.missLatency::cpu0.inst    205953839                       # number of ReadReq miss ticks (Tick)
system.cpu0.icache.ReadReq.missLatency::total    205953839                       # number of ReadReq miss ticks (Tick)
system.cpu0.icache.ReadReq.accesses::cpu0.inst     28259882                       # number of ReadReq accesses(hits+misses) (Count)
system.cpu0.icache.ReadReq.accesses::total     28259882                       # number of ReadReq accesses(hits+misses) (Count)
system.cpu0.icache.ReadReq.missRate::cpu0.inst     0.000094                       # miss rate for ReadReq accesses (Ratio)
system.cpu0.icache.ReadReq.missRate::total     0.000094                       # miss rate for ReadReq accesses (Ratio)
system.cpu0.icache.ReadReq.avgMissLatency::cpu0.inst 77601.295780                       # average ReadReq miss latency ((Tick/Count))
system.cpu0.icache.ReadReq.avgMissLatency::total 77601.295780                       # average ReadReq miss latency ((Tick/Count))
system.cpu0.icache.ReadReq.mshrHits::cpu0.inst          656                       # number of ReadReq MSHR hits (Count)
system.cpu0.icache.ReadReq.mshrHits::total          656                       # number of ReadReq MSHR hits (Count)
system.cpu0.icache.ReadReq.mshrMisses::cpu0.inst         1998                       # number of ReadReq MSHR misses (Count)
system.cpu0.icache.ReadReq.mshrMisses::total         1998                       # number of ReadReq MSHR misses (Count)
system.cpu0.icache.ReadReq.mshrMissLatency::cpu0.inst    158749424                       # number of ReadReq MSHR miss ticks (Tick)
system.cpu0.icache.ReadReq.mshrMissLatency::total    158749424                       # number of ReadReq MSHR miss ticks (Tick)
system.cpu0.icache.ReadReq.mshrMissRate::cpu0.inst     0.000071                       # mshr miss rate for ReadReq accesses (Ratio)
system.cpu0.icache.ReadReq.mshrMissRate::total     0.000071                       # mshr miss rate for ReadReq accesses (Ratio)
system.cpu0.icache.ReadReq.avgMshrMissLatency::cpu0.inst 79454.166166                       # average ReadReq mshr miss latency ((Tick/Count))
system.cpu0.icache.ReadReq.avgMshrMissLatency::total 79454.166166                       # average ReadReq mshr miss latency ((Tick/Count))
system.cpu0.icache.power_state.pwrStateResidencyTicks::UNDEFINED  40124021148                       # Cumulative time (in ticks) in various power states (Tick)
system.cpu0.icache.tags.tagsInUse          511.704748                       # Average ticks per tags in use ((Tick/Count))
system.cpu0.icache.tags.totalRefs            28259225                       # Total number of references to valid blocks. (Count)
system.cpu0.icache.tags.sampledRefs              1997                       # Sample count of references to valid blocks. (Count)
system.cpu0.icache.tags.avgRefs          14150.838758                       # Average number of references to valid blocks. ((Count/Count))
system.cpu0.icache.tags.warmupTick              92241                       # The tick when the warmup percentage was hit. (Tick)
system.cpu0.icache.tags.occupancies::cpu0.inst   511.704748                       # Average occupied blocks per tick, per requestor ((Count/Tick))
system.cpu0.icache.tags.avgOccs::cpu0.inst     0.999423                       # Average percentage of cache occupancy ((Ratio/Tick))
system.cpu0.icache.tags.avgOccs::total       0.999423                       # Average percentage of cache occupancy ((Ratio/Tick))
system.cpu0.icache.tags.occupanciesTaskId::1024          512                       # Occupied blocks per task id (Count)
system.cpu0.icache.tags.ageTaskId_1024::0          153                       # Occupied blocks per task id, per block age (Count)
system.cpu0.icache.tags.ageTaskId_1024::1          178                       # Occupied blocks per task id, per block age (Count)
system.cpu0.icache.tags.ageTaskId_1024::4          181                       # Occupied blocks per task id, per block age (Count)
system.cpu0.icache.tags.ratioOccsTaskId::1024            1                       # Ratio of occupied blocks and all blocks, per task id (Ratio)
system.cpu0.icache.tags.tagAccesses         226081053                       # Number of tag accesses (Count)
system.cpu0.icache.tags.dataAccesses        226081053                       # Number of data accesses (Count)
system.cpu0.icache.tags.power_state.pwrStateResidencyTicks::UNDEFINED  40124021148                       # Cumulative time (in ticks) in various power states (Tick)
system.cpu0.iew.idleCycles                          0                       # Number of cycles IEW is idle (Cycle)
system.cpu0.iew.squashCycles                   694937                       # Number of cycles IEW is squashing (Cycle)
system.cpu0.iew.blockCycles                    438981                       # Number of cycles IEW is blocking (Cycle)
system.cpu0.iew.unblockCycles                   22198                       # Number of cycles IEW is unblocking (Cycle)
system.cpu0.iew.dispatchedInsts             285982983                       # Number of instructions dispatched to IQ (Count)
system.cpu0.iew.dispSquashedInsts             1188288                       # Number of squashed instructions skipped by dispatch (Count)
system.cpu0.iew.dispLoadInsts                30588873                       # Number of dispatched load instructions (Count)
system.cpu0.iew.dispStoreInsts               13394724                       # Number of dispatched store instructions (Count)
system.cpu0.iew.dispNonSpecInsts                 2237                       # Number of dispatched non-speculative instructions (Count)
system.cpu0.iew.iqFullEvents                     2509                       # Number of times the IQ has become full, causing a stall (Count)
system.cpu0.iew.lsqFullEvents                   18110                       # Number of times the LSQ has become full, causing a stall (Count)
system.cpu0.iew.memOrderViolationEvents          1122                       # Number of memory order violations (Count)
system.cpu0.iew.predictedTakenIncorrect        684226                       # Number of branches that were predicted taken incorrectly (Count)
system.cpu0.iew.predictedNotTakenIncorrect        11482                       # Number of branches that were predicted not taken incorrectly (Count)
system.cpu0.iew.branchMispredicts              695708                       # Number of branch mispredicts detected at execute (Count)
system.cpu0.iew.instsToCommit               283368297                       # Cumulative count of insts sent to commit (Count)
system.cpu0.iew.writebackCount              283321244                       # Cumulative count of insts written-back (Count)
system.cpu0.iew.producerInst                217445865                       # Number of instructions producing a value (Count)
system.cpu0.iew.consumerInst                460117774                       # Number of instructions consuming a value (Count)
system.cpu0.iew.wbRate                       2.574824                       # Insts written-back per cycle ((Count/Cycle))
system.cpu0.iew.wbFanout                     0.472587                       # Average fanout of values written-back ((Count/Count))
system.cpu0.interrupts.clk_domain.clock          5328                       # Clock period in ticks (Tick)
system.cpu0.itb_walker_cache.blockedCycles::no_mshrs            0                       # number of cycles access was blocked (Cycle)
system.cpu0.itb_walker_cache.blockedCycles::no_targets            0                       # number of cycles access was blocked (Cycle)
system.cpu0.itb_walker_cache.blockedCauses::no_mshrs            0                       # number of times access was blocked (Count)
system.cpu0.itb_walker_cache.blockedCauses::no_targets            0                       # number of times access was blocked (Count)
system.cpu0.itb_walker_cache.avgBlocked::no_mshrs          nan                       # average number of cycles each access was blocked ((Cycle/Count))
system.cpu0.itb_walker_cache.avgBlocked::no_targets          nan                       # average number of cycles each access was blocked ((Cycle/Count))
system.cpu0.itb_walker_cache.replacements            0                       # number of replacements (Count)
[...]
system.mem_ctrls.dram.avgMemAccLat           27612.28                       # Average memory access latency per DRAM burst ((Tick/Count))
system.mem_ctrls.dram.readRowHits               27865                       # Number of row buffer hits during reads (Count)
system.mem_ctrls.dram.writeRowHits                  0                       # Number of row buffer hits during writes (Count)
system.mem_ctrls.dram.readRowHitRate            72.75                       # Row buffer hit rate for reads (Ratio)
system.mem_ctrls.dram.writeRowHitRate             nan                       # Row buffer hit rate for writes (Ratio)
system.mem_ctrls.dram.bytesPerActivate::samples        10432                       # Bytes accessed per row activation (Byte)
system.mem_ctrls.dram.bytesPerActivate::mean   234.858896                       # Bytes accessed per row activation (Byte)
system.mem_ctrls.dram.bytesPerActivate::gmean   209.823465                       # Bytes accessed per row activation (Byte)
system.mem_ctrls.dram.bytesPerActivate::stdev   128.584128                       # Bytes accessed per row activation (Byte)
system.mem_ctrls.dram.bytesPerActivate::0-127          846      8.11%      8.11% # Bytes accessed per row activation (Byte)
system.mem_ctrls.dram.bytesPerActivate::128-255         2178     20.88%     28.99% # Bytes accessed per row activation (Byte)
system.mem_ctrls.dram.bytesPerActivate::256-383         7074     67.81%     96.80% # Bytes accessed per row activation (Byte)
system.mem_ctrls.dram.bytesPerActivate::384-511           59      0.57%     97.36% # Bytes accessed per row activation (Byte)
system.mem_ctrls.dram.bytesPerActivate::512-639           40      0.38%     97.75% # Bytes accessed per row activation (Byte)
system.mem_ctrls.dram.bytesPerActivate::640-767           37      0.35%     98.10% # Bytes accessed per row activation (Byte)
system.mem_ctrls.dram.bytesPerActivate::768-895           26      0.25%     98.35% # Bytes accessed per row activation (Byte)
system.mem_ctrls.dram.bytesPerActivate::896-1023           23      0.22%     98.57% # Bytes accessed per row activation (Byte)
system.mem_ctrls.dram.bytesPerActivate::1024-1151          149      1.43%    100.00% # Bytes accessed per row activation (Byte)
system.mem_ctrls.dram.bytesPerActivate::total        10432                       # Bytes accessed per row activation (Byte)
system.mem_ctrls.dram.bytesRead               2451264                       # Total bytes read (Byte)
system.mem_ctrls.dram.bytesWritten                  0                       # Total bytes written (Byte)
system.mem_ctrls.dram.avgRdBW               61.092182                       # Average DRAM read bandwidth in MiBytes/s ((Byte/Second))
system.mem_ctrls.dram.avgWrBW                       0                       # Average DRAM write bandwidth in MiBytes/s ((Byte/Second))
system.mem_ctrls.dram.peakBW                 12800.00                       # Theoretical peak bandwidth in MiByte/s ((Byte/Second))
system.mem_ctrls.dram.busUtil                    0.48                       # Data bus utilization in percentage (Ratio)
system.mem_ctrls.dram.busUtilRead                0.48                       # Data bus utilization in percentage for reads (Ratio)
system.mem_ctrls.dram.busUtilWrite               0.00                       # Data bus utilization in percentage for writes (Ratio)
system.mem_ctrls.dram.pageHitRate               72.75                       # Row buffer hit rate, read and write combined (Ratio)
system.mem_ctrls.dram.power_state.pwrStateResidencyTicks::UNDEFINED  40124021148                       # Cumulative time (in ticks) in various power states (Tick)
system.mem_ctrls.dram.rank0.actEnergy        35749980                       # Energy for activate commands per rank (pJ) (Joule)
system.mem_ctrls.dram.rank0.preEnergy        18993975                       # Energy for precharge commands per rank (pJ) (Joule)
system.mem_ctrls.dram.rank0.readEnergy      136916640                       # Energy for read commands per rank (pJ) (Joule)
system.mem_ctrls.dram.rank0.writeEnergy             0                       # Energy for write commands per rank (pJ) (Joule)
system.mem_ctrls.dram.rank0.refreshEnergy 3167239920.000000                       # Energy for refresh commands per rank (pJ) (Joule)
system.mem_ctrls.dram.rank0.actBackEnergy   3396274890                       # Energy for active background per rank (pJ) (Joule)
system.mem_ctrls.dram.rank0.preBackEnergy  12547603200                       # Energy for precharge background per rank (pJ) (Joule)
system.mem_ctrls.dram.rank0.actPowerDownEnergy            0                       # Energy for active power-down per rank (pJ) (Joule)
system.mem_ctrls.dram.rank0.prePowerDownEnergy            0                       # Energy for precharge power-down per rank (pJ) (Joule)
system.mem_ctrls.dram.rank0.selfRefreshEnergy            0                       # Energy for self refresh per rank (pJ) (Joule)
system.mem_ctrls.dram.rank0.totalEnergy   19302778605                       # Total energy per rank (pJ) (Joule)
system.mem_ctrls.dram.rank0.averagePower   481.077869                       # Core power per rank (mW) (Watt)
system.mem_ctrls.dram.rank0.totalIdleTime            0                       # Total Idle time Per DRAM Rank (Tick)
system.mem_ctrls.dram.rank0.pwrStateTime::IDLE  32589876450                       # Time in different power states (Tick)
system.mem_ctrls.dram.rank0.pwrStateTime::REF   1339780000                       # Time in different power states (Tick)
system.mem_ctrls.dram.rank0.pwrStateTime::SREF            0                       # Time in different power states (Tick)
system.mem_ctrls.dram.rank0.pwrStateTime::PRE_PDN            0                       # Time in different power states (Tick)
system.mem_ctrls.dram.rank0.pwrStateTime::ACT   6194364698                       # Time in different power states (Tick)
system.mem_ctrls.dram.rank0.pwrStateTime::ACT_PDN            0                       # Time in different power states (Tick)
system.mem_ctrls.dram.rank1.actEnergy        38763060                       # Energy for activate commands per rank (pJ) (Joule)
system.mem_ctrls.dram.rank1.preEnergy        20595465                       # Energy for precharge commands per rank (pJ) (Joule)
system.mem_ctrls.dram.rank1.readEnergy      136552500                       # Energy for read commands per rank (pJ) (Joule)
system.mem_ctrls.dram.rank1.writeEnergy             0                       # Energy for write commands per rank (pJ) (Joule)
system.mem_ctrls.dram.rank1.refreshEnergy 3167239920.000000                       # Energy for refresh commands per rank (pJ) (Joule)
system.mem_ctrls.dram.rank1.actBackEnergy   3382025460                       # Energy for active background per rank (pJ) (Joule)
system.mem_ctrls.dram.rank1.preBackEnergy  12559602720                       # Energy for precharge background per rank (pJ) (Joule)
system.mem_ctrls.dram.rank1.actPowerDownEnergy            0                       # Energy for active power-down per rank (pJ) (Joule)
system.mem_ctrls.dram.rank1.prePowerDownEnergy            0                       # Energy for precharge power-down per rank (pJ) (Joule)
system.mem_ctrls.dram.rank1.selfRefreshEnergy            0                       # Energy for self refresh per rank (pJ) (Joule)
system.mem_ctrls.dram.rank1.totalEnergy   19304779125                       # Total energy per rank (pJ) (Joule)
system.mem_ctrls.dram.rank1.averagePower   481.127728                       # Core power per rank (mW) (Watt)
system.mem_ctrls.dram.rank1.totalIdleTime            0                       # Total Idle time Per DRAM Rank (Tick)
system.mem_ctrls.dram.rank1.pwrStateTime::IDLE  32620643668                       # Time in different power states (Tick)
system.mem_ctrls.dram.rank1.pwrStateTime::REF   1339780000                       # Time in different power states (Tick)
system.mem_ctrls.dram.rank1.pwrStateTime::SREF            0                       # Time in different power states (Tick)
system.mem_ctrls.dram.rank1.pwrStateTime::PRE_PDN            0                       # Time in different power states (Tick)
system.mem_ctrls.dram.rank1.pwrStateTime::ACT   6163597480                       # Time in different power states (Tick)
system.mem_ctrls.dram.rank1.pwrStateTime::ACT_PDN            0                       # Time in different power states (Tick)
system.mem_ctrls.power_state.pwrStateResidencyTicks::UNDEFINED  40124021148                       # Cumulative time (in ticks) in various power states (Tick)
system.membus.transDist::ReadResp                4414                       # Transaction distribution (Count)
system.membus.transDist::UpgradeReq             36438                       # Transaction distribution (Count)
system.membus.transDist::ReadExReq              34649                       # Transaction distribution (Count)
system.membus.transDist::ReadExResp             33887                       # Transaction distribution (Count)
system.membus.transDist::ReadSharedReq           4414                       # Transaction distribution (Count)
system.membus.pktCount_system.l3.mem_side_port::system.mem_ctrls.port       113802                       # Packet count per connected requestor and responder (Count)
system.membus.pktCount_system.l3.mem_side_port::total       113802                       # Packet count per connected requestor and responder (Count)
system.membus.pktCount::total                  113802                       # Packet count per connected requestor and responder (Count)
system.membus.pktSize_system.l3.mem_side_port::system.mem_ctrls.port      2451264                       # Cumulative packet size per connected requestor and responder (Byte)
system.membus.pktSize_system.l3.mem_side_port::total      2451264                       # Cumulative packet size per connected requestor and responder (Byte)
system.membus.pktSize::total                  2451264                       # Cumulative packet size per connected requestor and responder (Byte)
system.membus.snoops                            37200                       # Total snoops (Count)
system.membus.snoopTraffic                          0                       # Total snoop traffic (Byte)
system.membus.snoopFanout::samples              75501                       # Request fanout histogram (Count)
system.membus.snoopFanout::mean                     0                       # Request fanout histogram (Count)
system.membus.snoopFanout::stdev                    0                       # Request fanout histogram (Count)
system.membus.snoopFanout::underflows               0      0.00%      0.00% # Request fanout histogram (Count)
system.membus.snoopFanout::0                    75501    100.00%    100.00% # Request fanout histogram (Count)
system.membus.snoopFanout::1                        0      0.00%    100.00% # Request fanout histogram (Count)
system.membus.snoopFanout::overflows                0      0.00%    100.00% # Request fanout histogram (Count)
system.membus.snoopFanout::min_value                0                       # Request fanout histogram (Count)
system.membus.snoopFanout::max_value                0                       # Request fanout histogram (Count)
system.membus.snoopFanout::total                75501                       # Request fanout histogram (Count)
system.membus.power_state.pwrStateResidencyTicks::UNDEFINED  40124021148                       # Cumulative time (in ticks) in various power states (Tick)
system.membus.reqLayer8.occupancy            57690324                       # Layer occupancy (ticks) (Tick)
system.membus.reqLayer8.utilization               0.0                       # Layer utilization (Ratio)
system.membus.respLayer1.occupancy          203849029                       # Layer occupancy (ticks) (Tick)
system.membus.respLayer1.utilization              0.0                       # Layer utilization (Ratio)
system.membus.snoop_filter.totRequests          75501                       # Total number of requests made to the snoop filter. (Count)
system.membus.snoop_filter.hitSingleRequests        37200                       # Number of requests hitting in the snoop filter with a single holder of the requested data. (Count)
system.membus.snoop_filter.hitMultiRequests            0                       # Number of requests hitting in the snoop filter with multiple (>1) holders of the requested data. (Count)
system.membus.snoop_filter.totSnoops                0                       # Total number of snoops made to the snoop filter. (Count)
system.membus.snoop_filter.hitSingleSnoops            0                       # Number of snoops hitting in the snoop filter with a single holder of the requested data. (Count)
system.membus.snoop_filter.hitMultiSnoops            0                       # Number of snoops hitting in the snoop filter with multiple (>1) holders of the requested data. (Count)
system.tol3bus.transDist::ReadResp             105979                       # Transaction distribution (Count)
system.tol3bus.transDist::ReadRespWithInvalidate          107                       # Transaction distribution (Count)
system.tol3bus.transDist::WritebackDirty        11091                       # Transaction distribution (Count)
system.tol3bus.transDist::CleanEvict             3420                       # Transaction distribution (Count)
system.tol3bus.transDist::UpgradeReq            38490                       # Transaction distribution (Count)
system.tol3bus.transDist::UpgradeResp           38490                       # Transaction distribution (Count)
system.tol3bus.transDist::ReadExReq             35149                       # Transaction distribution (Count)
system.tol3bus.transDist::ReadExResp            35149                       # Transaction distribution (Count)
system.tol3bus.transDist::ReadSharedReq        106086                       # Transaction distribution (Count)
system.tol3bus.pktCount_system.cpu0.l2cache.mem_side_port::system.l3.cpu_side_port       124158                       # Packet count per connected requestor and responder (Count)
system.tol3bus.pktCount_system.cpu1.l2cache.mem_side_port::system.l3.cpu_side_port        43402                       # Packet count per connected requestor and responder (Count)
system.tol3bus.pktCount_system.cpu2.l2cache.mem_side_port::system.l3.cpu_side_port        39498                       # Packet count per connected requestor and responder (Count)
system.tol3bus.pktCount_system.cpu3.l2cache.mem_side_port::system.l3.cpu_side_port        38782                       # Packet count per connected requestor and responder (Count)
system.tol3bus.pktCount::total                 245840                       # Packet count per connected requestor and responder (Count)
system.tol3bus.pktSize_system.cpu0.l2cache.mem_side_port::system.l3.cpu_side_port      3484672                       # Cumulative packet size per connected requestor and responder (Byte)
system.tol3bus.pktSize_system.cpu1.l2cache.mem_side_port::system.l3.cpu_side_port       256704                       # Cumulative packet size per connected requestor and responder (Byte)
system.tol3bus.pktSize_system.cpu2.l2cache.mem_side_port::system.l3.cpu_side_port        77952                       # Cumulative packet size per connected requestor and responder (Byte)
system.tol3bus.pktSize_system.cpu3.l2cache.mem_side_port::system.l3.cpu_side_port        61824                       # Cumulative packet size per connected requestor and responder (Byte)
system.tol3bus.pktSize::total                 3881152                       # Cumulative packet size per connected requestor and responder (Byte)
system.tol3bus.snoops                          128121                       # Total snoops (Count)
system.tol3bus.snoopTraffic                   5867712                       # Total snoop traffic (Byte)
system.tol3bus.snoopFanout::samples            179725                       # Request fanout histogram (Count)
system.tol3bus.snoopFanout::mean             1.035070                       # Request fanout histogram (Count)
system.tol3bus.snoopFanout::stdev            0.877117                       # Request fanout histogram (Count)
system.tol3bus.snoopFanout::underflows              0      0.00%      0.00% # Request fanout histogram (Count)
system.tol3bus.snoopFanout::0                   48425     26.94%     26.94% # Request fanout histogram (Count)
system.tol3bus.snoopFanout::1                   94240     52.44%     79.38% # Request fanout histogram (Count)
system.tol3bus.snoopFanout::2                   19392     10.79%     90.17% # Request fanout histogram (Count)
system.tol3bus.snoopFanout::3                   17668      9.83%    100.00% # Request fanout histogram (Count)
system.tol3bus.snoopFanout::4                       0      0.00%    100.00% # Request fanout histogram (Count)
system.tol3bus.snoopFanout::overflows               0      0.00%    100.00% # Request fanout histogram (Count)
system.tol3bus.snoopFanout::min_value               0                       # Request fanout histogram (Count)
system.tol3bus.snoopFanout::max_value               3                       # Request fanout histogram (Count)
system.tol3bus.snoopFanout::total              179725                       # Request fanout histogram (Count)
system.tol3bus.power_state.pwrStateResidencyTicks::UNDEFINED  40124021148                       # Cumulative time (in ticks) in various power states (Tick)
system.tol3bus.reqLayer0.occupancy           72090478                       # Layer occupancy (ticks) (Tick)
system.tol3bus.reqLayer0.utilization              0.0                       # Layer utilization (Ratio)
system.tol3bus.respLayer0.occupancy          63201057                       # Layer occupancy (ticks) (Tick)
system.tol3bus.respLayer0.utilization             0.0                       # Layer utilization (Ratio)
system.tol3bus.respLayer1.occupancy          30940967                       # Layer occupancy (ticks) (Tick)
system.tol3bus.respLayer1.utilization             0.0                       # Layer utilization (Ratio)
system.tol3bus.respLayer2.occupancy          30033549                       # Layer occupancy (ticks) (Tick)
system.tol3bus.respLayer2.utilization             0.0                       # Layer utilization (Ratio)
system.tol3bus.respLayer3.occupancy          29786791                       # Layer occupancy (ticks) (Tick)
system.tol3bus.respLayer3.utilization             0.0                       # Layer utilization (Ratio)
system.tol3bus.snoop_filter.totRequests        194236                       # Total number of requests made to the snoop filter. (Count)
system.tol3bus.snoop_filter.hitSingleRequests        69012                       # Number of requests hitting in the snoop filter with a single holder of the requested data. (Count)
system.tol3bus.snoop_filter.hitMultiRequests        76799                       # Number of requests hitting in the snoop filter with multiple (>1) holders of the requested data. (Count)
system.tol3bus.snoop_filter.totSnoops               0                       # Total number of snoops made to the snoop filter. (Count)
system.tol3bus.snoop_filter.hitSingleSnoops            0                       # Number of snoops hitting in the snoop filter with a single holder of the requested data. (Count)
system.tol3bus.snoop_filter.hitMultiSnoops            0                       # Number of snoops hitting in the snoop filter with multiple (>1) holders of the requested data. (Count)
system.voltage_domain.voltage                       1                       # Voltage in Volts (Volt)
system.workload.inst.arm                            0                       # number of arm instructions executed (Count)
system.workload.inst.quiesce                        0                       # number of quiesce instructions executed (Count)

---------- End Simulation Statistics   ----------
