
---------- Begin Simulation Statistics ----------
simSeconds                                   0.150487                       # Number of seconds simulated (Second)
simTicks                                 150487071291                       # Number of ticks simulated (Tick)
finalTick                                150487071291                       # Number of ticks from beginning of simulation (restored from checkpoints and never reset) (Tick)
simFreq                                  1000000000000                       # The number of ticks per simulated second ((Tick/Second))
hostSeconds                                    448.66                       # Real time elapsed on the host (Second)
hostTickRate                                335411930                       # The number of ticks simulated per host second (ticks/s) ((Tick/Second))
hostMemory                                     717472                       # Number of bytes of host memory used (Byte)
simInsts                                    249691918                       # Number of instructions simulated (Count)
simOps                                      249691979                       # Number of ops (including micro ops) simulated (Count)
hostInstRate                                   556523                       # Simulator instruction rate (inst/s) ((Count/Second))
hostOpRate                                     556523                       # Simulator op (including micro ops) rate (op/s) ((Count/Second))
system.clk_domain.clock                          1000                       # Clock period in ticks (Tick)
system.cpu.numCycles                        451913129                       # Number of cpu cycles simulated (Cycle)
system.cpu.numWorkItemsStarted                      0                       # Number of work items this cpu started (Count)
system.cpu.numWorkItemsCompleted                    0                       # Number of work items this cpu completed (Count)
system.cpu.instsAdded                       250183983                       # Number of instructions added to the IQ (excludes non-spec) (Count)
system.cpu.nonSpecInstsAdded                      472                       # Number of non-speculative instructions added to the IQ (Count)
system.cpu.instsIssued                      255305831                       # Number of instructions issued (Count)
system.cpu.squashedInstsIssued                    269                       # Number of squashed instructions issued (Count)
system.cpu.squashedInstsExamined               492475                       # Number of squashed instructions iterated over during squash; mainly for profiling (Count)
system.cpu.squashedOperandsExamined            285087                       # Number of squashed operands that are examined and possibly removed from graph (Count)
system.cpu.squashedNonSpecRemoved                 199                       # Number of squashed non-spec instructions that were removed (Count)
system.cpu.numIssuedDist::samples           451829587                       # Number of insts issued each cycle (Count)
system.cpu.numIssuedDist::mean               0.565049                       # Number of insts issued each cycle (Count)
system.cpu.numIssuedDist::stdev              0.983129                       # Number of insts issued each cycle (Count)
system.cpu.numIssuedDist::underflows                0      0.00%      0.00% # Number of insts issued each cycle (Count)
system.cpu.numIssuedDist::0                 289514354     64.08%     64.08% # Number of insts issued each cycle (Count)
system.cpu.numIssuedDist::1                 103955890     23.01%     87.08% # Number of insts issued each cycle (Count)
system.cpu.numIssuedDist::2                  41322390      9.15%     96.23% # Number of insts issued each cycle (Count)
system.cpu.numIssuedDist::3                   9490997      2.10%     98.33% # Number of insts issued each cycle (Count)
system.cpu.numIssuedDist::4                   2501617      0.55%     98.88% # Number of insts issued each cycle (Count)
system.cpu.numIssuedDist::5                   1911908      0.42%     99.31% # Number of insts issued each cycle (Count)
system.cpu.numIssuedDist::6                   1954399      0.43%     99.74% # Number of insts issued each cycle (Count)
system.cpu.numIssuedDist::7                    484488      0.11%     99.85% # Number of insts issued each cycle (Count)
system.cpu.numIssuedDist::8                    693544      0.15%    100.00% # Number of insts issued each cycle (Count)
system.cpu.numIssuedDist::overflows                 0      0.00%    100.00% # Number of insts issued each cycle (Count)
system.cpu.numIssuedDist::min_value                 0                       # Number of insts issued each cycle (Count)
system.cpu.numIssuedDist::max_value                 8                       # Number of insts issued each cycle (Count)
system.cpu.numIssuedDist::total             451829587                       # Number of insts issued each cycle (Count)
system.cpu.statFuBusy::No_OpClass                   0      0.00%      0.00% # attempts to use FU when none available (Count)
system.cpu.statFuBusy::IntAlu                 1560375     68.57%     68.57% # attempts to use FU when none available (Count)
system.cpu.statFuBusy::IntMult                      6      0.00%     68.57% # attempts to use FU when none available (Count)
system.cpu.statFuBusy::IntDiv                      18      0.00%     68.57% # attempts to use FU when none available (Count)
system.cpu.statFuBusy::FloatAdd                     0      0.00%     68.57% # attempts to use FU when none available (Count)
system.cpu.statFuBusy::FloatCmp                     0      0.00%     68.57% # attempts to use FU when none available (Count)
system.cpu.statFuBusy::FloatCvt                     0      0.00%     68.57% # attempts to use FU when none available (Count)
system.cpu.statFuBusy::FloatMult                 2052      0.09%     68.66% # attempts to use FU when none available (Count)
system.cpu.statFuBusy::FloatMultAcc                 0      0.00%     68.66% # attempts to use FU when none available (Count)
system.cpu.statFuBusy::FloatDiv                    12      0.00%     68.66% # attempts to use FU when none available (Count)
system.cpu.statFuBusy::FloatMisc                   14      0.00%     68.66% # attempts to use FU when none available (Count)
system.cpu.statFuBusy::FloatSqrt                    0      0.00%     68.66% # attempts to use FU when none available (Count)
system.cpu.statFuBusy::SimdAdd                      0      0.00%     68.66% # attempts to use FU when none available (Count)
system.cpu.statFuBusy::SimdAddAcc                   0      0.00%     68.66% # attempts to use FU when none available (Count)
system.cpu.statFuBusy::SimdAlu                      0      0.00%     68.66% # attempts to use FU when none available (Count)
system.cpu.statFuBusy::SimdCmp                      0      0.00%     68.66% # attempts to use FU when none available (Count)
system.cpu.statFuBusy::SimdCvt                      0      0.00%     68.66% # attempts to use FU when none available (Count)
system.cpu.statFuBusy::SimdMisc                     0      0.00%     68.66% # attempts to use FU when none available (Count)
system.cpu.statFuBusy::SimdMult                     0      0.00%     68.66% # attempts to use FU when none available (Count)
system.cpu.statFuBusy::SimdMultAcc                  0      0.00%     68.66% # attempts to use FU when none available (Count)
system.cpu.statFuBusy::SimdShift                    0      0.00%     68.66% # attempts to use FU when none available (Count)
system.cpu.statFuBusy::SimdShiftAcc                 0      0.00%     68.66% # attempts to use FU when none available (Count)
system.cpu.statFuBusy::SimdDiv                      0      0.00%     68.66% # attempts to use FU when none available (Count)
system.cpu.statFuBusy::SimdSqrt                     0      0.00%     68.66% # attempts to use FU when none available (Count)
system.cpu.statFuBusy::SimdFloatAdd                 0      0.00%     68.66% # attempts to use FU when none available (Count)
system.cpu.statFuBusy::SimdFloatAlu                 0      0.00%     68.66% # attempts to use FU when none available (Count)
system.cpu.statFuBusy::SimdFloatCmp                 0      0.00%     68.66% # attempts to use FU when none available (Count)
system.cpu.statFuBusy::SimdFloatCvt                 0      0.00%     68.66% # attempts to use FU when none available (Count)
system.cpu.statFuBusy::SimdFloatDiv                 0      0.00%     68.66% # attempts to use FU when none available (Count)
system.cpu.statFuBusy::SimdFloatMisc                0      0.00%     68.66% # attempts to use FU when none available (Count)
system.cpu.statFuBusy::SimdFloatMult                0      0.00%     68.66% # attempts to use FU when none available (Count)
system.cpu.statFuBusy::SimdFloatMultAcc             0      0.00%     68.66% # attempts to use FU when none available (Count)
system.cpu.statFuBusy::SimdFloatSqrt                0      0.00%     68.66% # attempts to use FU when none available (Count)
system.cpu.statFuBusy::SimdReduceAdd                0      0.00%     68.66% # attempts to use FU when none available (Count)
system.cpu.statFuBusy::SimdReduceAlu                0      0.00%     68.66% # attempts to use FU when none available (Count)
system.cpu.statFuBusy::SimdReduceCmp                0      0.00%     68.66% # attempts to use FU when none available (Count)
system.cpu.statFuBusy::SimdFloatReduceAdd            0      0.00%     68.66% # attempts to use FU when none available (Count)
system.cpu.statFuBusy::SimdFloatReduceCmp            0      0.00%     68.66% # attempts to use FU when none available (Count)
system.cpu.statFuBusy::SimdAes                      0      0.00%     68.66% # attempts to use FU when none available (Count)
system.cpu.statFuBusy::SimdAesMix                   0      0.00%     68.66% # attempts to use FU when none available (Count)
system.cpu.statFuBusy::SimdSha1Hash                 0      0.00%     68.66% # attempts to use FU when none available (Count)
system.cpu.statFuBusy::SimdSha1Hash2                0      0.00%     68.66% # attempts to use FU when none available (Count)
system.cpu.statFuBusy::SimdSha256Hash               0      0.00%     68.66% # attempts to use FU when none available (Count)
system.cpu.statFuBusy::SimdSha256Hash2              0      0.00%     68.66% # attempts to use FU when none available (Count)
system.cpu.statFuBusy::SimdShaSigma2                0      0.00%     68.66% # attempts to use FU when none available (Count)
system.cpu.statFuBusy::SimdShaSigma3                0      0.00%     68.66% # attempts to use FU when none available (Count)
system.cpu.statFuBusy::SimdPredAlu                  0      0.00%     68.66% # attempts to use FU when none available (Count)
system.cpu.statFuBusy::MemRead                 711922     31.28%     99.95% # attempts to use FU when none available (Count)
system.cpu.statFuBusy::MemWrite                  1211      0.05%    100.00% # attempts to use FU when none available (Count)
system.cpu.statFuBusy::FloatMemRead                 4      0.00%    100.00% # attempts to use FU when none available (Count)
system.cpu.statFuBusy::FloatMemWrite               10      0.00%    100.00% # attempts to use FU when none available (Count)
system.cpu.statFuBusy::IprAccess                    0      0.00%    100.00% # attempts to use FU when none available (Count)
system.cpu.statFuBusy::InstPrefetch                 0      0.00%    100.00% # attempts to use FU when none available (Count)
system.cpu.statIssuedInstType_0::No_OpClass          185      0.00%      0.00% # Number of instructions issued per FU type, per thread (Count)
system.cpu.statIssuedInstType_0::IntAlu      69427671     27.19%     27.19% # Number of instructions issued per FU type, per thread (Count)
system.cpu.statIssuedInstType_0::IntMult           58      0.00%     27.19% # Number of instructions issued per FU type, per thread (Count)
system.cpu.statIssuedInstType_0::IntDiv           130      0.00%     27.19% # Number of instructions issued per FU type, per thread (Count)
system.cpu.statIssuedInstType_0::FloatAdd     28323858     11.09%     38.29% # Number of instructions issued per FU type, per thread (Count)
system.cpu.statIssuedInstType_0::FloatCmp            6      0.00%     38.29% # Number of instructions issued per FU type, per thread (Count)
system.cpu.statIssuedInstType_0::FloatCvt     35676196     13.97%     52.26% # Number of instructions issued per FU type, per thread (Count)
system.cpu.statIssuedInstType_0::FloatMult     56651801     22.19%     74.45% # Number of instructions issued per FU type, per thread (Count)
system.cpu.statIssuedInstType_0::FloatMultAcc            0      0.00%     74.45% # Number of instructions issued per FU type, per thread (Count)
system.cpu.statIssuedInstType_0::FloatDiv            3      0.00%     74.45% # Number of instructions issued per FU type, per thread (Count)
system.cpu.statIssuedInstType_0::FloatMisc      6297617      2.47%     76.92% # Number of instructions issued per FU type, per thread (Count)
system.cpu.statIssuedInstType_0::FloatSqrt            0      0.00%     76.92% # Number of instructions issued per FU type, per thread (Count)
system.cpu.statIssuedInstType_0::SimdAdd            0      0.00%     76.92% # Number of instructions issued per FU type, per thread (Count)
system.cpu.statIssuedInstType_0::SimdAddAcc            0      0.00%     76.92% # Number of instructions issued per FU type, per thread (Count)
system.cpu.statIssuedInstType_0::SimdAlu            0      0.00%     76.92% # Number of instructions issued per FU type, per thread (Count)
system.cpu.statIssuedInstType_0::SimdCmp            0      0.00%     76.92% # Number of instructions issued per FU type, per thread (Count)
system.cpu.statIssuedInstType_0::SimdCvt            0      0.00%     76.92% # Number of instructions issued per FU type, per thread (Count)
system.cpu.statIssuedInstType_0::SimdMisc            0      0.00%     76.92% # Number of instructions issued per FU type, per thread (Count)
system.cpu.statIssuedInstType_0::SimdMult            0      0.00%     76.92% # Number of instructions issued per FU type, per thread (Count)
system.cpu.statIssuedInstType_0::SimdMultAcc            0      0.00%     76.92% # Number of instructions issued per FU type, per thread (Count)
system.cpu.statIssuedInstType_0::SimdShift            0      0.00%     76.92% # Number of instructions issued per FU type, per thread (Count)
system.cpu.statIssuedInstType_0::SimdShiftAcc            0      0.00%     76.92% # Number of instructions issued per FU type, per thread (Count)
system.cpu.statIssuedInstType_0::SimdDiv            0      0.00%     76.92% # Number of instructions issued per FU type, per thread (Count)
system.cpu.statIssuedInstType_0::SimdSqrt            0      0.00%     76.92% # Number of instructions issued per FU type, per thread (Count)
system.cpu.statIssuedInstType_0::SimdFloatAdd            0      0.00%     76.92% # Number of instructions issued per FU type, per thread (Count)
system.cpu.statIssuedInstType_0::SimdFloatAlu            0      0.00%     76.92% # Number of instructions issued per FU type, per thread (Count)
system.cpu.statIssuedInstType_0::SimdFloatCmp            0      0.00%     76.92% # Number of instructions issued per FU type, per thread (Count)
system.cpu.statIssuedInstType_0::SimdFloatCvt            0      0.00%     76.92% # Number of instructions issued per FU type, per thread (Count)
system.cpu.statIssuedInstType_0::SimdFloatDiv            0      0.00%     76.92% # Number of instructions issued per FU type, per thread (Count)
system.cpu.statIssuedInstType_0::SimdFloatMisc            0      0.00%     76.92% # Number of instructions issued per FU type, per thread (Count)
system.cpu.statIssuedInstType_0::SimdFloatMult            0      0.00%     76.92% # Number of instructions issued per FU type, per thread (Count)
system.cpu.statIssuedInstType_0::SimdFloatMultAcc            0      0.00%     76.92% # Number of instructions issued per FU type, per thread (Count)
system.cpu.statIssuedInstType_0::SimdFloatSqrt            0      0.00%     76.92% # Number of instructions issued per FU type, per thread (Count)
system.cpu.statIssuedInstType_0::SimdReduceAdd            0      0.00%     76.92% # Number of instructions issued per FU type, per thread (Count)
system.cpu.statIssuedInstType_0::SimdReduceAlu            0      0.00%     76.92% # Number of instructions issued per FU type, per thread (Count)
system.cpu.statIssuedInstType_0::SimdReduceCmp            0      0.00%     76.92% # Number of instructions issued per FU type, per thread (Count)
system.cpu.statIssuedInstType_0::SimdFloatReduceAdd            0      0.00%     76.92% # Number of instructions issued per FU type, per thread (Count)
system.cpu.statIssuedInstType_0::SimdFloatReduceCmp            0      0.00%     76.92% # Number of instructions issued per FU type, per thread (Count)
system.cpu.statIssuedInstType_0::SimdAes            0      0.00%     76.92% # Number of instructions issued per FU type, per thread (Count)
system.cpu.statIssuedInstType_0::SimdAesMix            0      0.00%     76.92% # Number of instructions issued per FU type, per thread (Count)
system.cpu.statIssuedInstType_0::SimdSha1Hash            0      0.00%     76.92% # Number of instructions issued per FU type, per thread (Count)
system.cpu.statIssuedInstType_0::SimdSha1Hash2            0      0.00%     76.92% # Number of instructions issued per FU type, per thread (Count)
system.cpu.statIssuedInstType_0::SimdSha256Hash            0      0.00%     76.92% # Number of instructions issued per FU type, per thread (Count)
system.cpu.statIssuedInstType_0::SimdSha256Hash2            0      0.00%     76.92% # Number of instructions issued per FU type, per thread (Count)
system.cpu.statIssuedInstType_0::SimdShaSigma2            0      0.00%     76.92% # Number of instructions issued per FU type, per thread (Count)
system.cpu.statIssuedInstType_0::SimdShaSigma3            0      0.00%     76.92% # Number of instructions issued per FU type, per thread (Count)
system.cpu.statIssuedInstType_0::SimdPredAlu            0      0.00%     76.92% # Number of instructions issued per FU type, per thread (Count)
system.cpu.statIssuedInstType_0::MemRead     31586887     12.37%     89.29% # Number of instructions issued per FU type, per thread (Count)
system.cpu.statIssuedInstType_0::MemWrite     10535462      4.13%     93.42% # Number of instructions issued per FU type, per thread (Count)
system.cpu.statIssuedInstType_0::FloatMemRead     16805922      6.58%    100.00% # Number of instructions issued per FU type, per thread (Count)
system.cpu.statIssuedInstType_0::FloatMemWrite           35      0.00%    100.00% # Number of instructions issued per FU type, per thread (Count)
system.cpu.statIssuedInstType_0::IprAccess            0      0.00%    100.00% # Number of instructions issued per FU type, per thread (Count)
system.cpu.statIssuedInstType_0::InstPrefetch            0      0.00%    100.00% # Number of instructions issued per FU type, per thread (Count)
system.cpu.statIssuedInstType_0::total      255305831                       # Number of instructions issued per FU type, per thread (Count)
system.cpu.issueRate                         0.564944                       # Inst issue rate ((Count/Cycle))
system.cpu.fuBusy                             2275624                       # FU busy when requested (Count)
system.cpu.fuBusyRate                        0.008913                       # FU busy rate (busy events/executed inst) ((Count/Count))
system.cpu.intInstQueueReads                677204174                       # Number of integer instruction queue reads (Count)
system.cpu.intInstQueueWrites               106571330                       # Number of integer instruction queue writes (Count)
system.cpu.intInstQueueWakeupAccesses       106258836                       # Number of integer instruction queue wakeup accesses (Count)
system.cpu.fpInstQueueReads                 287512968                       # Number of floating instruction queue reads (Count)
system.cpu.fpInstQueueWrites                144105726                       # Number of floating instruction queue writes (Count)
system.cpu.fpInstQueueWakeupAccesses        143753385                       # Number of floating instruction queue wakeup accesses (Count)
system.cpu.vecInstQueueReads                        0                       # Number of vector instruction queue reads (Count)
system.cpu.vecInstQueueWrites                       0                       # Number of vector instruction queue writes (Count)
system.cpu.vecInstQueueWakeupAccesses               0                       # Number of vector instruction queue wakeup accesses (Count)
system.cpu.intAluAccesses                   113823740                       # Number of integer alu accesses (Count)
system.cpu.fpAluAccesses                    143757530                       # Number of floating point alu accesses (Count)
system.cpu.vecAluAccesses                           0                       # Number of vector alu accesses (Count)
system.cpu.numInsts                         255301954                       # Number of executed instructions (Count)
system.cpu.numLoadInsts                      48392192                       # Number of load instructions executed (Count)
system.cpu.numSquashedInsts                      3877                       # Number of squashed instructions skipped in execute (Count)
system.cpu.numSwp                                   0                       # Number of swp insts executed (Count)
system.cpu.numNop                                   0                       # Number of nop insts executed (Count)
system.cpu.numRefs                           58927466                       # Number of memory reference insts executed (Count)
system.cpu.numBranches                       15782432                       # Number of branches executed (Count)
system.cpu.numStoreInsts                     10535274                       # Number of stores executed (Count)
system.cpu.numRate                           0.564936                       # Inst execution rate ((Count/Cycle))
system.cpu.timesIdled                             454                       # Number of times that the entire CPU went into an idle state and unscheduled itself (Count)
system.cpu.idleCycles                           83542                       # Total number of cycles that the CPU has spent unscheduled due to idling (Cycle)
system.cpu.committedInsts                   249691918                       # Number of Instructions Simulated (Count)
system.cpu.committedOps                     249691979                       # Number of Ops (including micro ops) Simulated (Count)
system.cpu.cpi                               1.809883                       # CPI: Cycles Per Instruction ((Cycle/Count))
system.cpu.totalCpi                          1.809883                       # CPI: Total CPI of All Threads ((Cycle/Count))
system.cpu.ipc                               0.552522                       # IPC: Instructions Per Cycle ((Count/Cycle))
system.cpu.totalIpc                          0.552522                       # IPC: Total IPC of All Threads ((Count/Cycle))
system.cpu.intRegfileReads                  173555291                       # Number of integer regfile reads (Count)
system.cpu.intRegfileWrites                 101990182                       # Number of integer regfile writes (Count)
system.cpu.fpRegfileReads                   200384694                       # Number of floating regfile reads (Count)
system.cpu.fpRegfileWrites                  125915253                       # Number of floating regfile writes (Count)
system.cpu.miscRegfileReads                 391350639                       # number of misc regfile reads (Count)
system.cpu.miscRegfileWrites                126877788                       # number of misc regfile writes (Count)
system.cpu.MemDepUnit__0.insertedLoads       43120814                       # Number of loads inserted to the mem dependence unit. (Count)
system.cpu.MemDepUnit__0.insertedStores      10541717                       # Number of stores inserted to the mem dependence unit. (Count)
system.cpu.MemDepUnit__0.conflictingLoads      9449248                       # Number of conflicting loads. (Count)
system.cpu.MemDepUnit__0.conflictingStores      6298959                       # Number of conflicting stores. (Count)
system.cpu.MemDepUnit__1.insertedLoads              0                       # Number of loads inserted to the mem dependence unit. (Count)
system.cpu.MemDepUnit__1.insertedStores             0                       # Number of stores inserted to the mem dependence unit. (Count)
system.cpu.MemDepUnit__1.conflictingLoads            0                       # Number of conflicting loads. (Count)
system.cpu.MemDepUnit__1.conflictingStores            0                       # Number of conflicting stores. (Count)
system.cpu.MemDepUnit__2.insertedLoads              0                       # Number of loads inserted to the mem dependence unit. (Count)
system.cpu.MemDepUnit__2.insertedStores             0                       # Number of stores inserted to the mem dependence unit. (Count)
system.cpu.MemDepUnit__2.conflictingLoads            0                       # Number of conflicting loads. (Count)
system.cpu.MemDepUnit__2.conflictingStores            0                       # Number of conflicting stores. (Count)
system.cpu.MemDepUnit__3.insertedLoads              0                       # Number of loads inserted to the mem dependence unit. (Count)
system.cpu.MemDepUnit__3.insertedStores             0                       # Number of stores inserted to the mem dependence unit. (Count)
system.cpu.MemDepUnit__3.conflictingLoads            0                       # Number of conflicting loads. (Count)
system.cpu.MemDepUnit__3.conflictingStores            0                       # Number of conflicting stores. (Count)
system.cpu.branchPred.lookups                15799473                       # Number of BP lookups (Count)
system.cpu.branchPred.condPredicted           7388886                       # Number of conditional branches predicted (Count)
system.cpu.branchPred.condIncorrect              1550                       # Number of conditional branches incorrect (Count)
system.cpu.branchPred.BTBLookups             11589339                       # Number of BTB lookups (Count)
system.cpu.branchPred.BTBHits                11587740                       # Number of BTB hits (Count)
system.cpu.branchPred.BTBHitRatio            0.999862                       # BTB Hit Ratio (Ratio)
system.cpu.branchPred.RASUsed                 4203777                       # Number of times the RAS was used to get a target. (Count)
system.cpu.branchPred.RASIncorrect                  8                       # Number of incorrect RAS predictions. (Count)
system.cpu.branchPred.indirectLookups             374                       # Number of indirect predictor lookups. (Count)
system.cpu.branchPred.indirectHits                 54                       # Number of indirect target hits. (Count)
system.cpu.branchPred.indirectMisses              320                       # Number of indirect misses. (Count)
system.cpu.branchPred.indirectMispredicted          104                       # Number of mispredicted indirect branches. (Count)
system.cpu.commit.commitSquashedInsts          465270                       # The number of squashed insts skipped by commit (Count)
system.cpu.commit.commitNonSpecStalls             273                       # The number of times commit has been forced to stall to communicate backwards (Count)
system.cpu.commit.branchMispredicts              1131                       # The number of times a branch was mispredicted (Count)
system.cpu.commit.numCommittedDist::samples    451768684                       # Number of insts commited each cycle (Count)
system.cpu.commit.numCommittedDist::mean     0.552699                       # Number of insts commited each cycle (Count)
system.cpu.commit.numCommittedDist::stdev     1.384308                       # Number of insts commited each cycle (Count)
system.cpu.commit.numCommittedDist::underflows            0      0.00%      0.00% # Number of insts commited each cycle (Count)
system.cpu.commit.numCommittedDist::0       334298921     74.00%     74.00% # Number of insts commited each cycle (Count)
system.cpu.commit.numCommittedDist::1        65671481     14.54%     88.53% # Number of insts commited each cycle (Count)
system.cpu.commit.numCommittedDist::2        30816496      6.82%     95.36% # Number of insts commited each cycle (Count)
system.cpu.commit.numCommittedDist::3         5001363      1.11%     96.46% # Number of insts commited each cycle (Count)
system.cpu.commit.numCommittedDist::4         3780598      0.84%     97.30% # Number of insts commited each cycle (Count)
system.cpu.commit.numCommittedDist::5         1426796      0.32%     97.62% # Number of insts commited each cycle (Count)
system.cpu.commit.numCommittedDist::6            3756      0.00%     97.62% # Number of insts commited each cycle (Count)
system.cpu.commit.numCommittedDist::7         1049675      0.23%     97.85% # Number of insts commited each cycle (Count)
system.cpu.commit.numCommittedDist::8         9719598      2.15%    100.00% # Number of insts commited each cycle (Count)
system.cpu.commit.numCommittedDist::overflows            0      0.00%    100.00% # Number of insts commited each cycle (Count)
system.cpu.commit.numCommittedDist::min_value            0                       # Number of insts commited each cycle (Count)
system.cpu.commit.numCommittedDist::max_value            8                       # Number of insts commited each cycle (Count)
system.cpu.commit.numCommittedDist::total    451768684                       # Number of insts commited each cycle (Count)
system.cpu.commit.instsCommitted            249691918                       # Number of instructions committed (Count)
system.cpu.commit.opsCommitted              249691979                       # Number of ops (including micro ops) committed (Count)
system.cpu.commit.memRefs                    53529676                       # Number of memory references committed (Count)
system.cpu.commit.loads                      43021278                       # Number of loads committed (Count)
system.cpu.commit.amos                             67                       # Number of atomic instructions committed (Count)
system.cpu.commit.membars                         111                       # Number of memory barriers committed (Count)
system.cpu.commit.branches                   15749258                       # Number of branches committed (Count)
system.cpu.commit.vectorInstructions                0                       # Number of committed Vector instructions. (Count)
system.cpu.commit.floating                  143655066                       # Number of committed floating point instructions. (Count)
system.cpu.commit.integer                   158465440                       # Number of committed integer instructions. (Count)
system.cpu.commit.functionCalls               4194785                       # Number of function calls committed. (Count)
system.cpu.commit.committedInstType_0::No_OpClass          120      0.00%      0.00% # Class of committed instruction (Count)
system.cpu.commit.committedInstType_0::IntAlu     69284231     27.75%     27.75% # Class of committed instruction (Count)
system.cpu.commit.committedInstType_0::IntMult           46      0.00%     27.75% # Class of committed instruction (Count)
system.cpu.commit.committedInstType_0::IntDiv          118      0.00%     27.75% # Class of committed instruction (Count)
system.cpu.commit.committedInstType_0::FloatAdd     28311570     11.34%     39.09% # Class of committed instruction (Count)
system.cpu.commit.committedInstType_0::FloatCmp            6      0.00%     39.09% # Class of committed instruction (Count)
system.cpu.commit.committedInstType_0::FloatCvt     35651617     14.28%     53.36% # Class of committed instruction (Count)
system.cpu.commit.committedInstType_0::FloatMult     56623129     22.68%     76.04% # Class of committed instruction (Count)
system.cpu.commit.committedInstType_0::FloatMultAcc            0      0.00%     76.04% # Class of committed instruction (Count)
system.cpu.commit.committedInstType_0::FloatDiv            0      0.00%     76.04% # Class of committed instruction (Count)
system.cpu.commit.committedInstType_0::FloatMisc      6291466      2.52%     78.56% # Class of committed instruction (Count)
system.cpu.commit.committedInstType_0::FloatSqrt            0      0.00%     78.56% # Class of committed instruction (Count)
system.cpu.commit.committedInstType_0::SimdAdd            0      0.00%     78.56% # Class of committed instruction (Count)
system.cpu.commit.committedInstType_0::SimdAddAcc            0      0.00%     78.56% # Class of committed instruction (Count)
system.cpu.commit.committedInstType_0::SimdAlu            0      0.00%     78.56% # Class of committed instruction (Count)
system.cpu.commit.committedInstType_0::SimdCmp            0      0.00%     78.56% # Class of committed instruction (Count)
system.cpu.commit.committedInstType_0::SimdCvt            0      0.00%     78.56% # Class of committed instruction (Count)
system.cpu.commit.committedInstType_0::SimdMisc            0      0.00%     78.56% # Class of committed instruction (Count)
system.cpu.commit.committedInstType_0::SimdMult            0      0.00%     78.56% # Class of committed instruction (Count)
system.cpu.commit.committedInstType_0::SimdMultAcc            0      0.00%     78.56% # Class of committed instruction (Count)
system.cpu.commit.committedInstType_0::SimdShift            0      0.00%     78.56% # Class of committed instruction (Count)
system.cpu.commit.committedInstType_0::SimdShiftAcc            0      0.00%     78.56% # Class of committed instruction (Count)
system.cpu.commit.committedInstType_0::SimdDiv            0      0.00%     78.56% # Class of committed instruction (Count)
system.cpu.commit.committedInstType_0::SimdSqrt            0      0.00%     78.56% # Class of committed instruction (Count)
system.cpu.commit.committedInstType_0::SimdFloatAdd            0      0.00%     78.56% # Class of committed instruction (Count)
system.cpu.commit.committedInstType_0::SimdFloatAlu            0      0.00%     78.56% # Class of committed instruction (Count)
system.cpu.commit.committedInstType_0::SimdFloatCmp            0      0.00%     78.56% # Class of committed instruction (Count)
system.cpu.commit.committedInstType_0::SimdFloatCvt            0      0.00%     78.56% # Class of committed instruction (Count)
system.cpu.commit.committedInstType_0::SimdFloatDiv            0      0.00%     78.56% # Class of committed instruction (Count)
system.cpu.commit.committedInstType_0::SimdFloatMisc            0      0.00%     78.56% # Class of committed instruction (Count)
system.cpu.commit.committedInstType_0::SimdFloatMult            0      0.00%     78.56% # Class of committed instruction (Count)
system.cpu.commit.committedInstType_0::SimdFloatMultAcc            0      0.00%     78.56% # Class of committed instruction (Count)
system.cpu.commit.committedInstType_0::SimdFloatSqrt            0      0.00%     78.56% # Class of committed instruction (Count)
system.cpu.commit.committedInstType_0::SimdReduceAdd            0      0.00%     78.56% # Class of committed instruction (Count)
system.cpu.commit.committedInstType_0::SimdReduceAlu            0      0.00%     78.56% # Class of committed instruction (Count)
system.cpu.commit.committedInstType_0::SimdReduceCmp            0      0.00%     78.56% # Class of committed instruction (Count)
system.cpu.commit.committedInstType_0::SimdFloatReduceAdd            0      0.00%     78.56% # Class of committed instruction (Count)
system.cpu.commit.committedInstType_0::SimdFloatReduceCmp            0      0.00%     78.56% # Class of committed instruction (Count)
system.cpu.commit.committedInstType_0::SimdAes            0      0.00%     78.56% # Class of committed instruction (Count)
system.cpu.commit.committedInstType_0::SimdAesMix            0      0.00%     78.56% # Class of committed instruction (Count)
system.cpu.commit.committedInstType_0::SimdSha1Hash            0      0.00%     78.56% # Class of committed instruction (Count)
system.cpu.commit.committedInstType_0::SimdSha1Hash2            0      0.00%     78.56% # Class of committed instruction (Count)
system.cpu.commit.committedInstType_0::SimdSha256Hash            0      0.00%     78.56% # Class of committed instruction (Count)
system.cpu.commit.committedInstType_0::SimdSha256Hash2            0      0.00%     78.56% # Class of committed instruction (Count)
system.cpu.commit.committedInstType_0::SimdShaSigma2            0      0.00%     78.56% # Class of committed instruction (Count)
system.cpu.commit.committedInstType_0::SimdShaSigma3            0      0.00%     78.56% # Class of committed instruction (Count)
system.cpu.commit.committedInstType_0::SimdPredAlu            0      0.00%     78.56% # Class of committed instruction (Count)
system.cpu.commit.committedInstType_0::MemRead     26244102     10.51%     89.07% # Class of committed instruction (Count)
system.cpu.commit.committedInstType_0::MemWrite     10508296      4.21%     93.28% # Class of committed instruction (Count)
system.cpu.commit.committedInstType_0::FloatMemRead     16777243      6.72%    100.00% # Class of committed instruction (Count)
system.cpu.commit.committedInstType_0::FloatMemWrite           35      0.00%    100.00% # Class of committed instruction (Count)
system.cpu.commit.committedInstType_0::IprAccess            0      0.00%    100.00% # Class of committed instruction (Count)
system.cpu.commit.committedInstType_0::InstPrefetch            0      0.00%    100.00% # Class of committed instruction (Count)
system.cpu.commit.committedInstType_0::total    249691979                       # Class of committed instruction (Count)
system.cpu.commit.commitEligibleSamples       9719598                       # number cycles where commit BW limit reached (Cycle)
system.cpu.dcache.demandHits::cpu.data       45841738                       # number of demand (read+write) hits (Count)
system.cpu.dcache.demandHits::total          45841738                       # number of demand (read+write) hits (Count)
system.cpu.dcache.overallHits::cpu.data      45841738                       # number of overall hits (Count)
system.cpu.dcache.overallHits::total         45841738                       # number of overall hits (Count)
system.cpu.dcache.demandMisses::cpu.data      7690820                       # number of demand (read+write) misses (Count)
system.cpu.dcache.demandMisses::total         7690820                       # number of demand (read+write) misses (Count)
system.cpu.dcache.overallMisses::cpu.data      7690820                       # number of overall misses (Count)
system.cpu.dcache.overallMisses::total        7690820                       # number of overall misses (Count)
system.cpu.dcache.demandMissLatency::cpu.data 504118212439                       # number of demand (read+write) miss ticks (Tick)
system.cpu.dcache.demandMissLatency::total 504118212439                       # number of demand (read+write) miss ticks (Tick)
system.cpu.dcache.overallMissLatency::cpu.data 504118212439                       # number of overall miss ticks (Tick)
system.cpu.dcache.overallMissLatency::total 504118212439                       # number of overall miss ticks (Tick)
system.cpu.dcache.demandAccesses::cpu.data     53532558                       # number of demand (read+write) accesses (Count)
system.cpu.dcache.demandAccesses::total      53532558                       # number of demand (read+write) accesses (Count)
system.cpu.dcache.overallAccesses::cpu.data     53532558                       # number of overall (read+write) accesses (Count)
system.cpu.dcache.overallAccesses::total     53532558                       # number of overall (read+write) accesses (Count)
system.cpu.dcache.demandMissRate::cpu.data     0.143666                       # miss rate for demand accesses (Ratio)
system.cpu.dcache.demandMissRate::total      0.143666                       # miss rate for demand accesses (Ratio)
system.cpu.dcache.overallMissRate::cpu.data     0.143666                       # miss rate for overall accesses (Ratio)
system.cpu.dcache.overallMissRate::total     0.143666                       # miss rate for overall accesses (Ratio)
system.cpu.dcache.demandAvgMissLatency::cpu.data 65548.044609                       # average overall miss latency in ticks ((Tick/Count))
system.cpu.dcache.demandAvgMissLatency::total 65548.044609                       # average overall miss latency in ticks ((Tick/Count))
system.cpu.dcache.overallAvgMissLatency::cpu.data 65548.044609                       # average overall miss latency ((Tick/Count))
system.cpu.dcache.overallAvgMissLatency::total 65548.044609                       # average overall miss latency ((Tick/Count))
system.cpu.dcache.blockedCycles::no_mshrs     23950130                       # number of cycles access was blocked (Cycle)
system.cpu.dcache.blockedCycles::no_targets            0                       # number of cycles access was blocked (Cycle)
system.cpu.dcache.blockedCauses::no_mshrs      1099303                       # number of times access was blocked (Count)
system.cpu.dcache.blockedCauses::no_targets            0                       # number of times access was blocked (Count)
system.cpu.dcache.avgBlocked::no_mshrs      21.786650                       # average number of cycles each access was blocked ((Cycle/Count))
system.cpu.dcache.avgBlocked::no_targets          nan                       # average number of cycles each access was blocked ((Cycle/Count))
system.cpu.dcache.writebacks::writebacks      1943823                       # number of writebacks (Count)
system.cpu.dcache.writebacks::total           1943823                       # number of writebacks (Count)
system.cpu.dcache.demandMshrHits::cpu.data      4964112                       # number of demand (read+write) MSHR hits (Count)
system.cpu.dcache.demandMshrHits::total       4964112                       # number of demand (read+write) MSHR hits (Count)
system.cpu.dcache.overallMshrHits::cpu.data      4964112                       # number of overall MSHR hits (Count)
system.cpu.dcache.overallMshrHits::total      4964112                       # number of overall MSHR hits (Count)
system.cpu.dcache.demandMshrMisses::cpu.data      2726708                       # number of demand (read+write) MSHR misses (Count)
system.cpu.dcache.demandMshrMisses::total      2726708                       # number of demand (read+write) MSHR misses (Count)
system.cpu.dcache.overallMshrMisses::cpu.data      2726708                       # number of overall MSHR misses (Count)
system.cpu.dcache.overallMshrMisses::total      2726708                       # number of overall MSHR misses (Count)
system.cpu.dcache.demandMshrMissLatency::cpu.data 136270627578                       # number of demand (read+write) MSHR miss ticks (Tick)
system.cpu.dcache.demandMshrMissLatency::total 136270627578                       # number of demand (read+write) MSHR miss ticks (Tick)
system.cpu.dcache.overallMshrMissLatency::cpu.data 136270627578                       # number of overall MSHR miss ticks (Tick)
system.cpu.dcache.overallMshrMissLatency::total 136270627578                       # number of overall MSHR miss ticks (Tick)
system.cpu.dcache.demandMshrMissRate::cpu.data     0.050936                       # mshr miss ratio for demand accesses (Ratio)
system.cpu.dcache.demandMshrMissRate::total     0.050936                       # mshr miss ratio for demand accesses (Ratio)
system.cpu.dcache.overallMshrMissRate::cpu.data     0.050936                       # mshr miss ratio for overall accesses (Ratio)
system.cpu.dcache.overallMshrMissRate::total     0.050936                       # mshr miss ratio for overall accesses (Ratio)
system.cpu.dcache.demandAvgMshrMissLatency::cpu.data 49976.245193                       # average overall mshr miss latency ((Tick/Count))
system.cpu.dcache.demandAvgMshrMissLatency::total 49976.245193                       # average overall mshr miss latency ((Tick/Count))
system.cpu.dcache.overallAvgMshrMissLatency::cpu.data 49976.245193                       # average overall mshr miss latency ((Tick/Count))
system.cpu.dcache.overallAvgMshrMissLatency::total 49976.245193                       # average overall mshr miss latency ((Tick/Count))
system.cpu.dcache.replacements                2726201                       # number of replacements (Count)
system.cpu.dcache.LoadLockedReq.hits::cpu.data           42                       # number of LoadLockedReq hits (Count)
system.cpu.dcache.LoadLockedReq.hits::total           42                       # number of LoadLockedReq hits (Count)
system.cpu.dcache.LoadLockedReq.misses::cpu.data           20                       # number of LoadLockedReq misses (Count)
system.cpu.dcache.LoadLockedReq.misses::total           20                       # number of LoadLockedReq misses (Count)
system.cpu.dcache.LoadLockedReq.missLatency::cpu.data      1793871                       # number of LoadLockedReq miss ticks (Tick)
system.cpu.dcache.LoadLockedReq.missLatency::total      1793871                       # number of LoadLockedReq miss ticks (Tick)
system.cpu.dcache.LoadLockedReq.accesses::cpu.data           62                       # number of LoadLockedReq accesses(hits+misses) (Count)
system.cpu.dcache.LoadLockedReq.accesses::total           62                       # number of LoadLockedReq accesses(hits+misses) (Count)
system.cpu.dcache.LoadLockedReq.missRate::cpu.data     0.322581                       # miss rate for LoadLockedReq accesses (Ratio)
system.cpu.dcache.LoadLockedReq.missRate::total     0.322581                       # miss rate for LoadLockedReq accesses (Ratio)
system.cpu.dcache.LoadLockedReq.avgMissLatency::cpu.data 89693.550000                       # average LoadLockedReq miss latency ((Tick/Count))
system.cpu.dcache.LoadLockedReq.avgMissLatency::total 89693.550000                       # average LoadLockedReq miss latency ((Tick/Count))
system.cpu.dcache.LoadLockedReq.mshrHits::cpu.data           16                       # number of LoadLockedReq MSHR hits (Count)
system.cpu.dcache.LoadLockedReq.mshrHits::total           16                       # number of LoadLockedReq MSHR hits (Count)
system.cpu.dcache.LoadLockedReq.mshrMisses::cpu.data            4                       # number of LoadLockedReq MSHR misses (Count)
system.cpu.dcache.LoadLockedReq.mshrMisses::total            4                       # number of LoadLockedReq MSHR misses (Count)
system.cpu.dcache.LoadLockedReq.mshrMissLatency::cpu.data       387279                       # number of LoadLockedReq MSHR miss ticks (Tick)
system.cpu.dcache.LoadLockedReq.mshrMissLatency::total       387279                       # number of LoadLockedReq MSHR miss ticks (Tick)
system.cpu.dcache.LoadLockedReq.mshrMissRate::cpu.data     0.064516                       # mshr miss rate for LoadLockedReq accesses (Ratio)
system.cpu.dcache.LoadLockedReq.mshrMissRate::total     0.064516                       # mshr miss rate for LoadLockedReq accesses (Ratio)
system.cpu.dcache.LoadLockedReq.avgMshrMissLatency::cpu.data 96819.750000                       # average LoadLockedReq mshr miss latency ((Tick/Count))
system.cpu.dcache.LoadLockedReq.avgMshrMissLatency::total 96819.750000                       # average LoadLockedReq mshr miss latency ((Tick/Count))
system.cpu.dcache.ReadReq.hits::cpu.data     37324638                       # number of ReadReq hits (Count)
system.cpu.dcache.ReadReq.hits::total        37324638                       # number of ReadReq hits (Count)
system.cpu.dcache.ReadReq.misses::cpu.data      5699641                       # number of ReadReq misses (Count)
system.cpu.dcache.ReadReq.misses::total       5699641                       # number of ReadReq misses (Count)
system.cpu.dcache.ReadReq.missLatency::cpu.data 431244108549                       # number of ReadReq miss ticks (Tick)
system.cpu.dcache.ReadReq.missLatency::total 431244108549                       # number of ReadReq miss ticks (Tick)
system.cpu.dcache.ReadReq.accesses::cpu.data     43024279                       # number of ReadReq accesses(hits+misses) (Count)
system.cpu.dcache.ReadReq.accesses::total     43024279                       # number of ReadReq accesses(hits+misses) (Count)
system.cpu.dcache.ReadReq.missRate::cpu.data     0.132475                       # miss rate for ReadReq accesses (Ratio)
system.cpu.dcache.ReadReq.missRate::total     0.132475                       # miss rate for ReadReq accesses (Ratio)
system.cpu.dcache.ReadReq.avgMissLatency::cpu.data 75661.626504                       # average ReadReq miss latency ((Tick/Count))
system.cpu.dcache.ReadReq.avgMissLatency::total 75661.626504                       # average ReadReq miss latency ((Tick/Count))
system.cpu.dcache.ReadReq.mshrHits::cpu.data      4778359                       # number of ReadReq MSHR hits (Count)
system.cpu.dcache.ReadReq.mshrHits::total      4778359                       # number of ReadReq MSHR hits (Count)
system.cpu.dcache.ReadReq.mshrMisses::cpu.data       921282                       # number of ReadReq MSHR misses (Count)
system.cpu.dcache.ReadReq.mshrMisses::total       921282                       # number of ReadReq MSHR misses (Count)
system.cpu.dcache.ReadReq.mshrMissLatency::cpu.data  69509153601                       # number of ReadReq MSHR miss ticks (Tick)
system.cpu.dcache.ReadReq.mshrMissLatency::total  69509153601                       # number of ReadReq MSHR miss ticks (Tick)
system.cpu.dcache.ReadReq.mshrMissRate::cpu.data     0.021413                       # mshr miss rate for ReadReq accesses (Ratio)
system.cpu.dcache.ReadReq.mshrMissRate::total     0.021413                       # mshr miss rate for ReadReq accesses (Ratio)
system.cpu.dcache.ReadReq.avgMshrMissLatency::cpu.data 75448.292272                       # average ReadReq mshr miss latency ((Tick/Count))
system.cpu.dcache.ReadReq.avgMshrMissLatency::total 75448.292272                       # average ReadReq mshr miss latency ((Tick/Count))
system.cpu.dcache.StoreCondReq.hits::cpu.data           52                       # number of StoreCondReq hits (Count)
system.cpu.dcache.StoreCondReq.hits::total           52                       # number of StoreCondReq hits (Count)
system.cpu.dcache.StoreCondReq.accesses::cpu.data           52                       # number of StoreCondReq accesses(hits+misses) (Count)
system.cpu.dcache.StoreCondReq.accesses::total           52                       # number of StoreCondReq accesses(hits+misses) (Count)
system.cpu.dcache.SwapReq.hits::cpu.data           66                       # number of SwapReq hits (Count)
system.cpu.dcache.SwapReq.hits::total              66                       # number of SwapReq hits (Count)
system.cpu.dcache.SwapReq.misses::cpu.data            1                       # number of SwapReq misses (Count)
system.cpu.dcache.SwapReq.misses::total             1                       # number of SwapReq misses (Count)
system.cpu.dcache.SwapReq.missLatency::cpu.data       105894                       # number of SwapReq miss ticks (Tick)
system.cpu.dcache.SwapReq.missLatency::total       105894                       # number of SwapReq miss ticks (Tick)
system.cpu.dcache.SwapReq.accesses::cpu.data           67                       # number of SwapReq accesses(hits+misses) (Count)
system.cpu.dcache.SwapReq.accesses::total           67                       # number of SwapReq accesses(hits+misses) (Count)
system.cpu.dcache.SwapReq.missRate::cpu.data     0.014925                       # miss rate for SwapReq accesses (Ratio)
system.cpu.dcache.SwapReq.missRate::total     0.014925                       # miss rate for SwapReq accesses (Ratio)
system.cpu.dcache.SwapReq.avgMissLatency::cpu.data       105894                       # average SwapReq miss latency ((Tick/Count))
system.cpu.dcache.SwapReq.avgMissLatency::total       105894                       # average SwapReq miss latency ((Tick/Count))
system.cpu.dcache.SwapReq.mshrMisses::cpu.data            1                       # number of SwapReq MSHR misses (Count)
system.cpu.dcache.SwapReq.mshrMisses::total            1                       # number of SwapReq MSHR misses (Count)
system.cpu.dcache.SwapReq.mshrMissLatency::cpu.data       105228                       # number of SwapReq MSHR miss ticks (Tick)
system.cpu.dcache.SwapReq.mshrMissLatency::total       105228                       # number of SwapReq MSHR miss ticks (Tick)
system.cpu.dcache.SwapReq.mshrMissRate::cpu.data     0.014925                       # mshr miss rate for SwapReq accesses (Ratio)
system.cpu.dcache.SwapReq.mshrMissRate::total     0.014925                       # mshr miss rate for SwapReq accesses (Ratio)
system.cpu.dcache.SwapReq.avgMshrMissLatency::cpu.data       105228                       # average SwapReq mshr miss latency ((Tick/Count))
system.cpu.dcache.SwapReq.avgMshrMissLatency::total       105228                       # average SwapReq mshr miss latency ((Tick/Count))
system.cpu.dcache.WriteReq.hits::cpu.data      8517100                       # number of WriteReq hits (Count)
system.cpu.dcache.WriteReq.hits::total        8517100                       # number of WriteReq hits (Count)
system.cpu.dcache.WriteReq.misses::cpu.data      1991179                       # number of WriteReq misses (Count)
system.cpu.dcache.WriteReq.misses::total      1991179                       # number of WriteReq misses (Count)
system.cpu.dcache.WriteReq.missLatency::cpu.data  72874103890                       # number of WriteReq miss ticks (Tick)
system.cpu.dcache.WriteReq.missLatency::total  72874103890                       # number of WriteReq miss ticks (Tick)
system.cpu.dcache.WriteReq.accesses::cpu.data     10508279                       # number of WriteReq accesses(hits+misses) (Count)
system.cpu.dcache.WriteReq.accesses::total     10508279                       # number of WriteReq accesses(hits+misses) (Count)
system.cpu.dcache.WriteReq.missRate::cpu.data     0.189487                       # miss rate for WriteReq accesses (Ratio)
system.cpu.dcache.WriteReq.missRate::total     0.189487                       # miss rate for WriteReq accesses (Ratio)
system.cpu.dcache.WriteReq.avgMissLatency::cpu.data 36598.469495                       # average WriteReq miss latency ((Tick/Count))
system.cpu.dcache.WriteReq.avgMissLatency::total 36598.469495                       # average WriteReq miss latency ((Tick/Count))
system.cpu.dcache.WriteReq.mshrHits::cpu.data       185753                       # number of WriteReq MSHR hits (Count)
system.cpu.dcache.WriteReq.mshrHits::total       185753                       # number of WriteReq MSHR hits (Count)
system.cpu.dcache.WriteReq.mshrMisses::cpu.data      1805426                       # number of WriteReq MSHR misses (Count)
system.cpu.dcache.WriteReq.mshrMisses::total      1805426                       # number of WriteReq MSHR misses (Count)
system.cpu.dcache.WriteReq.mshrMissLatency::cpu.data  66761473977                       # number of WriteReq MSHR miss ticks (Tick)
system.cpu.dcache.WriteReq.mshrMissLatency::total  66761473977                       # number of WriteReq MSHR miss ticks (Tick)
system.cpu.dcache.WriteReq.mshrMissRate::cpu.data     0.171810                       # mshr miss rate for WriteReq accesses (Ratio)
system.cpu.dcache.WriteReq.mshrMissRate::total     0.171810                       # mshr miss rate for WriteReq accesses (Ratio)
system.cpu.dcache.WriteReq.avgMshrMissLatency::cpu.data 36978.238918                       # average WriteReq mshr miss latency ((Tick/Count))
system.cpu.dcache.WriteReq.avgMshrMissLatency::total 36978.238918                       # average WriteReq mshr miss latency ((Tick/Count))
system.cpu.dcache.power_state.pwrStateResidencyTicks::UNDEFINED 150487071291                       # Cumulative time (in ticks) in various power states (Tick)
system.cpu.dcache.tags.tagsInUse           511.750851                       # Average ticks per tags in use ((Tick/Count))
system.cpu.dcache.tags.totalRefs             48568611                       # Total number of references to valid blocks. (Count)
system.cpu.dcache.tags.sampledRefs            2726713                       # Sample count of references to valid blocks. (Count)
system.cpu.dcache.tags.avgRefs              17.812146                       # Average number of references to valid blocks. ((Count/Count))
system.cpu.dcache.tags.warmupTick              268065                       # The tick when the warmup percentage was hit. (Tick)
system.cpu.dcache.tags.occupancies::cpu.data   511.750851                       # Average occupied blocks per tick, per requestor ((Count/Tick))
system.cpu.dcache.tags.avgOccs::cpu.data     0.999513                       # Average percentage of cache occupancy ((Ratio/Tick))
system.cpu.dcache.tags.avgOccs::total        0.999513                       # Average percentage of cache occupancy ((Ratio/Tick))
system.cpu.dcache.tags.occupanciesTaskId::1024          512                       # Occupied blocks per task id (Count)
system.cpu.dcache.tags.ageTaskId_1024::0           52                       # Occupied blocks per task id, per block age (Count)
system.cpu.dcache.tags.ageTaskId_1024::1          451                       # Occupied blocks per task id, per block age (Count)
system.cpu.dcache.tags.ageTaskId_1024::4            9                       # Occupied blocks per task id, per block age (Count)
system.cpu.dcache.tags.ratioOccsTaskId::1024            1                       # Ratio of occupied blocks and all blocks, per task id (Ratio)
system.cpu.dcache.tags.tagAccesses          430988625                       # Number of tag accesses (Count)
system.cpu.dcache.tags.dataAccesses         430988625                       # Number of data accesses (Count)
system.cpu.dcache.tags.power_state.pwrStateResidencyTicks::UNDEFINED 150487071291                       # Cumulative time (in ticks) in various power states (Tick)
system.cpu.decode.idleCycles                  8831214                       # Number of cycles decode is idle (Cycle)
system.cpu.decode.blockedCycles             411695787                       # Number of cycles decode is blocked (Cycle)
system.cpu.decode.runCycles                   2769274                       # Number of cycles decode is running (Cycle)
system.cpu.decode.unblockCycles              28527923                       # Number of cycles decode is unblocking (Cycle)
system.cpu.decode.squashCycles                   5389                       # Number of cycles decode is squashing (Cycle)
system.cpu.decode.branchResolved             11579532                       # Number of times decode resolved a branch (Count)
system.cpu.decode.branchMispred                   466                       # Number of times decode detected a branch misprediction (Count)
system.cpu.decode.decodedInsts              250240234                       # Number of instructions handled by decode (Count)
system.cpu.decode.squashedInsts                  1647                       # Number of squashed instructions handled by decode (Count)
system.cpu.dtb_walker_cache.blockedCycles::no_mshrs            0                       # number of cycles access was blocked (Cycle)
system.cpu.dtb_walker_cache.blockedCycles::no_targets            0                       # number of cycles access was blocked (Cycle)
system.cpu.dtb_walker_cache.blockedCauses::no_mshrs            0                       # number of times access was blocked (Count)
system.cpu.dtb_walker_cache.blockedCauses::no_targets            0                       # number of times access was blocked (Count)
system.cpu.dtb_walker_cache.avgBlocked::no_mshrs          nan                       # average number of cycles each access was blocked ((Cycle/Count))
system.cpu.dtb_walker_cache.avgBlocked::no_targets          nan                       # average number of cycles each access was blocked ((Cycle/Count))
system.cpu.dtb_walker_cache.replacements            0                       # number of replacements (Count)
system.cpu.dtb_walker_cache.power_state.pwrStateResidencyTicks::UNDEFINED 150487071291                       # Cumulative time (in ticks) in various power states (Tick)
system.cpu.dtb_walker_cache.tags.tagsInUse            0                       # Average ticks per tags in use ((Tick/Count))
system.cpu.dtb_walker_cache.tags.totalRefs            0                       # Total number of references to valid blocks. (Count)
system.cpu.dtb_walker_cache.tags.sampledRefs            0                       # Sample count of references to valid blocks. (Count)
system.cpu.dtb_walker_cache.tags.avgRefs          nan                       # Average number of references to valid blocks. ((Count/Count))
system.cpu.dtb_walker_cache.tags.warmupTick            0                       # The tick when the warmup percentage was hit. (Tick)
system.cpu.dtb_walker_cache.tags.tagAccesses            0                       # Number of tag accesses (Count)
system.cpu.dtb_walker_cache.tags.dataAccesses            0                       # Number of data accesses (Count)
system.cpu.dtb_walker_cache.tags.power_state.pwrStateResidencyTicks::UNDEFINED 150487071291                       # Cumulative time (in ticks) in various power states (Tick)
system.cpu.fetch.icacheStallCycles           25246899                       # Number of cycles fetch is stalled on an Icache miss (Cycle)
system.cpu.fetch.insts                      250430169                       # Number of instructions fetch has processed (Count)
system.cpu.fetch.branches                    15799473                       # Number of branches that fetch encountered (Count)
system.cpu.fetch.predictedBranches           15791571                       # Number of branches that fetch has predicted taken (Count)
system.cpu.fetch.cycles                     426576507                       # Number of cycles fetch has run and was not squashing or blocked (Cycle)
system.cpu.fetch.squashCycles                   11678                       # Number of cycles fetch has spent squashing (Cycle)
system.cpu.fetch.miscStallCycles                   61                       # Number of cycles fetch has spent waiting on interrupts, or bad addresses, or out of MSHRs (Cycle)
system.cpu.fetch.pendingTrapStallCycles           188                       # Number of stall cycles due to pending traps (Cycle)
system.cpu.fetch.icacheWaitRetryStallCycles           93                       # Number of stall cycles due to full MSHR (Cycle)
system.cpu.fetch.cacheLines                  25225126                       # Number of cache lines fetched (Count)
system.cpu.fetch.icacheSquashes                   877                       # Number of outstanding Icache misses that were squashed (Count)
system.cpu.fetch.nisnDist::samples          451829587                       # Number of instructions fetched each cycle (Total) (Count)
system.cpu.fetch.nisnDist::mean              0.554258                       # Number of instructions fetched each cycle (Total) (Count)
system.cpu.fetch.nisnDist::stdev             1.816170                       # Number of instructions fetched each cycle (Total) (Count)
system.cpu.fetch.nisnDist::underflows               0      0.00%      0.00% # Number of instructions fetched each cycle (Total) (Count)
system.cpu.fetch.nisnDist::0                405187599     89.68%     89.68% # Number of instructions fetched each cycle (Total) (Count)
system.cpu.fetch.nisnDist::1                  3658983      0.81%     90.49% # Number of instructions fetched each cycle (Total) (Count)
system.cpu.fetch.nisnDist::2                  4461275      0.99%     91.47% # Number of instructions fetched each cycle (Total) (Count)
system.cpu.fetch.nisnDist::3                  5604339      1.24%     92.71% # Number of instructions fetched each cycle (Total) (Count)
system.cpu.fetch.nisnDist::4                  3713794      0.82%     93.54% # Number of instructions fetched each cycle (Total) (Count)
system.cpu.fetch.nisnDist::5                  5130735      1.14%     94.67% # Number of instructions fetched each cycle (Total) (Count)
system.cpu.fetch.nisnDist::6                  4847692      1.07%     95.75% # Number of instructions fetched each cycle (Total) (Count)
system.cpu.fetch.nisnDist::7                  2360594      0.52%     96.27% # Number of instructions fetched each cycle (Total) (Count)
system.cpu.fetch.nisnDist::8                 16864576      3.73%    100.00% # Number of instructions fetched each cycle (Total) (Count)
system.cpu.fetch.nisnDist::overflows                0      0.00%    100.00% # Number of instructions fetched each cycle (Total) (Count)
system.cpu.fetch.nisnDist::min_value                0                       # Number of instructions fetched each cycle (Total) (Count)
system.cpu.fetch.nisnDist::max_value                8                       # Number of instructions fetched each cycle (Total) (Count)
system.cpu.fetch.nisnDist::total            451829587                       # Number of instructions fetched each cycle (Total) (Count)
system.cpu.fetch.branchRate                  0.034961                       # Number of branch fetches per cycle (Ratio)
system.cpu.fetch.rate                        0.554156                       # Number of inst fetches per cycle ((Count/Cycle))
system.cpu.icache.demandHits::cpu.inst       25224267                       # number of demand (read+write) hits (Count)
system.cpu.icache.demandHits::total          25224267                       # number of demand (read+write) hits (Count)
system.cpu.icache.overallHits::cpu.inst      25224267                       # number of overall hits (Count)
system.cpu.icache.overallHits::total         25224267                       # number of overall hits (Count)
system.cpu.icache.demandMisses::cpu.inst          858                       # number of demand (read+write) misses (Count)
system.cpu.icache.demandMisses::total             858                       # number of demand (read+write) misses (Count)
system.cpu.icache.overallMisses::cpu.inst          858                       # number of overall misses (Count)
system.cpu.icache.overallMisses::total            858                       # number of overall misses (Count)
system.cpu.icache.demandMissLatency::cpu.inst     72066859                       # number of demand (read+write) miss ticks (Tick)
system.cpu.icache.demandMissLatency::total     72066859                       # number of demand (read+write) miss ticks (Tick)
system.cpu.icache.overallMissLatency::cpu.inst     72066859                       # number of overall miss ticks (Tick)
system.cpu.icache.overallMissLatency::total     72066859                       # number of overall miss ticks (Tick)
system.cpu.icache.demandAccesses::cpu.inst     25225125                       # number of demand (read+write) accesses (Count)
system.cpu.icache.demandAccesses::total      25225125                       # number of demand (read+write) accesses (Count)
system.cpu.icache.overallAccesses::cpu.inst     25225125                       # number of overall (read+write) accesses (Count)
system.cpu.icache.overallAccesses::total     25225125                       # number of overall (read+write) accesses (Count)
system.cpu.icache.demandMissRate::cpu.inst     0.000034                       # miss rate for demand accesses (Ratio)
system.cpu.icache.demandMissRate::total      0.000034                       # miss rate for demand accesses (Ratio)
system.cpu.icache.overallMissRate::cpu.inst     0.000034                       # miss rate for overall accesses (Ratio)
system.cpu.icache.overallMissRate::total     0.000034                       # miss rate for overall accesses (Ratio)
system.cpu.icache.demandAvgMissLatency::cpu.inst 83994.008159                       # average overall miss latency in ticks ((Tick/Count))
system.cpu.icache.demandAvgMissLatency::total 83994.008159                       # average overall miss latency in ticks ((Tick/Count))
system.cpu.icache.overallAvgMissLatency::cpu.inst 83994.008159                       # average overall miss latency ((Tick/Count))
system.cpu.icache.overallAvgMissLatency::total 83994.008159                       # average overall miss latency ((Tick/Count))
system.cpu.icache.blockedCycles::no_mshrs         1290                       # number of cycles access was blocked (Cycle)
system.cpu.icache.blockedCycles::no_targets            0                       # number of cycles access was blocked (Cycle)
system.cpu.icache.blockedCauses::no_mshrs           13                       # number of times access was blocked (Count)
system.cpu.icache.blockedCauses::no_targets            0                       # number of times access was blocked (Count)
system.cpu.icache.avgBlocked::no_mshrs      99.230769                       # average number of cycles each access was blocked ((Cycle/Count))
system.cpu.icache.avgBlocked::no_targets          nan                       # average number of cycles each access was blocked ((Cycle/Count))
system.cpu.icache.writebacks::writebacks          120                       # number of writebacks (Count)
system.cpu.icache.writebacks::total               120                       # number of writebacks (Count)
system.cpu.icache.demandMshrHits::cpu.inst          257                       # number of demand (read+write) MSHR hits (Count)
system.cpu.icache.demandMshrHits::total           257                       # number of demand (read+write) MSHR hits (Count)
system.cpu.icache.overallMshrHits::cpu.inst          257                       # number of overall MSHR hits (Count)
system.cpu.icache.overallMshrHits::total          257                       # number of overall MSHR hits (Count)
system.cpu.icache.demandMshrMisses::cpu.inst          601                       # number of demand (read+write) MSHR misses (Count)
system.cpu.icache.demandMshrMisses::total          601                       # number of demand (read+write) MSHR misses (Count)
system.cpu.icache.overallMshrMisses::cpu.inst          601                       # number of overall MSHR misses (Count)
system.cpu.icache.overallMshrMisses::total          601                       # number of overall MSHR misses (Count)
system.cpu.icache.demandMshrMissLatency::cpu.inst     54305305                       # number of demand (read+write) MSHR miss ticks (Tick)
system.cpu.icache.demandMshrMissLatency::total     54305305                       # number of demand (read+write) MSHR miss ticks (Tick)
system.cpu.icache.overallMshrMissLatency::cpu.inst     54305305                       # number of overall MSHR miss ticks (Tick)
system.cpu.icache.overallMshrMissLatency::total     54305305                       # number of overall MSHR miss ticks (Tick)
system.cpu.icache.demandMshrMissRate::cpu.inst     0.000024                       # mshr miss ratio for demand accesses (Ratio)
system.cpu.icache.demandMshrMissRate::total     0.000024                       # mshr miss ratio for demand accesses (Ratio)
system.cpu.icache.overallMshrMissRate::cpu.inst     0.000024                       # mshr miss ratio for overall accesses (Ratio)
system.cpu.icache.overallMshrMissRate::total     0.000024                       # mshr miss ratio for overall accesses (Ratio)
system.cpu.icache.demandAvgMshrMissLatency::cpu.inst 90358.244592                       # average overall mshr miss latency ((Tick/Count))
system.cpu.icache.demandAvgMshrMissLatency::total 90358.244592                       # average overall mshr miss latency ((Tick/Count))
system.cpu.icache.overallAvgMshrMissLatency::cpu.inst 90358.244592                       # average overall mshr miss latency ((Tick/Count))
system.cpu.icache.overallAvgMshrMissLatency::total 90358.244592                       # average overall mshr miss latency ((Tick/Count))
system.cpu.icache.replacements                    120                       # number of replacements (Count)
system.cpu.icache.ReadReq.hits::cpu.inst     25224267                       # number of ReadReq hits (Count)
system.cpu.icache.ReadReq.hits::total        25224267                       # number of ReadReq hits (Count)
system.cpu.icache.ReadReq.misses::cpu.inst          858                       # number of ReadReq misses (Count)
system.cpu.icache.ReadReq.misses::total           858                       # number of ReadReq misses (Count)
system.cpu.icache.ReadReq.missLatency::cpu.inst     72066859                       # number of ReadReq miss ticks (Tick)
system.cpu.icache.ReadReq.missLatency::total     72066859                       # number of ReadReq miss ticks (Tick)
system.cpu.icache.ReadReq.accesses::cpu.inst     25225125                       # number of ReadReq accesses(hits+misses) (Count)
system.cpu.icache.ReadReq.accesses::total     25225125                       # number of ReadReq accesses(hits+misses) (Count)
system.cpu.icache.ReadReq.missRate::cpu.inst     0.000034                       # miss rate for ReadReq accesses (Ratio)
system.cpu.icache.ReadReq.missRate::total     0.000034                       # miss rate for ReadReq accesses (Ratio)
system.cpu.icache.ReadReq.avgMissLatency::cpu.inst 83994.008159                       # average ReadReq miss latency ((Tick/Count))
system.cpu.icache.ReadReq.avgMissLatency::total 83994.008159                       # average ReadReq miss latency ((Tick/Count))
system.cpu.icache.ReadReq.mshrHits::cpu.inst          257                       # number of ReadReq MSHR hits (Count)
system.cpu.icache.ReadReq.mshrHits::total          257                       # number of ReadReq MSHR hits (Count)
system.cpu.icache.ReadReq.mshrMisses::cpu.inst          601                       # number of ReadReq MSHR misses (Count)
system.cpu.icache.ReadReq.mshrMisses::total          601                       # number of ReadReq MSHR misses (Count)
system.cpu.icache.ReadReq.mshrMissLatency::cpu.inst     54305305                       # number of ReadReq MSHR miss ticks (Tick)
system.cpu.icache.ReadReq.mshrMissLatency::total     54305305                       # number of ReadReq MSHR miss ticks (Tick)
system.cpu.icache.ReadReq.mshrMissRate::cpu.inst     0.000024                       # mshr miss rate for ReadReq accesses (Ratio)
system.cpu.icache.ReadReq.mshrMissRate::total     0.000024                       # mshr miss rate for ReadReq accesses (Ratio)
system.cpu.icache.ReadReq.avgMshrMissLatency::cpu.inst 90358.244592                       # average ReadReq mshr miss latency ((Tick/Count))
system.cpu.icache.ReadReq.avgMshrMissLatency::total 90358.244592                       # average ReadReq mshr miss latency ((Tick/Count))
system.cpu.icache.power_state.pwrStateResidencyTicks::UNDEFINED 150487071291                       # Cumulative time (in ticks) in various power states (Tick)
system.cpu.icache.tags.tagsInUse           390.471151                       # Average ticks per tags in use ((Tick/Count))
system.cpu.icache.tags.totalRefs             25224868                       # Total number of references to valid blocks. (Count)
system.cpu.icache.tags.sampledRefs                601                       # Sample count of references to valid blocks. (Count)
system.cpu.icache.tags.avgRefs           41971.494176                       # Average number of references to valid blocks. ((Count/Count))
system.cpu.icache.tags.warmupTick               92241                       # The tick when the warmup percentage was hit. (Tick)
system.cpu.icache.tags.occupancies::cpu.inst   390.471151                       # Average occupied blocks per tick, per requestor ((Count/Tick))
system.cpu.icache.tags.avgOccs::cpu.inst     0.762639                       # Average percentage of cache occupancy ((Ratio/Tick))
system.cpu.icache.tags.avgOccs::total        0.762639                       # Average percentage of cache occupancy ((Ratio/Tick))
system.cpu.icache.tags.occupanciesTaskId::1024          481                       # Occupied blocks per task id (Count)
system.cpu.icache.tags.ageTaskId_1024::0          110                       # Occupied blocks per task id, per block age (Count)
system.cpu.icache.tags.ageTaskId_1024::1           51                       # Occupied blocks per task id, per block age (Count)
system.cpu.icache.tags.ageTaskId_1024::4          320                       # Occupied blocks per task id, per block age (Count)
system.cpu.icache.tags.ratioOccsTaskId::1024     0.939453                       # Ratio of occupied blocks and all blocks, per task id (Ratio)
system.cpu.icache.tags.tagAccesses          201801601                       # Number of tag accesses (Count)
system.cpu.icache.tags.dataAccesses         201801601                       # Number of data accesses (Count)
system.cpu.icache.tags.power_state.pwrStateResidencyTicks::UNDEFINED 150487071291                       # Cumulative time (in ticks) in various power states (Tick)
system.cpu.iew.idleCycles                           0                       # Number of cycles IEW is idle (Cycle)
system.cpu.iew.squashCycles                      5389                       # Number of cycles IEW is squashing (Cycle)
system.cpu.iew.blockCycles                  145217212                       # Number of cycles IEW is blocking (Cycle)
system.cpu.iew.unblockCycles                 16359047                       # Number of cycles IEW is unblocking (Cycle)
system.cpu.iew.dispatchedInsts              250184455                       # Number of instructions dispatched to IQ (Count)
system.cpu.iew.dispSquashedInsts                  369                       # Number of squashed instructions skipped by dispatch (Count)
system.cpu.iew.dispLoadInsts                 43120814                       # Number of dispatched load instructions (Count)
system.cpu.iew.dispStoreInsts                10541717                       # Number of dispatched store instructions (Count)
system.cpu.iew.dispNonSpecInsts                   298                       # Number of dispatched non-speculative instructions (Count)
system.cpu.iew.iqFullEvents                   6940344                       # Number of times the IQ has become full, causing a stall (Count)
system.cpu.iew.lsqFullEvents                  5794401                       # Number of times the LSQ has become full, causing a stall (Count)
system.cpu.iew.memOrderViolationEvents            129                       # Number of memory order violations (Count)
system.cpu.iew.predictedTakenIncorrect            220                       # Number of branches that were predicted taken incorrectly (Count)
system.cpu.iew.predictedNotTakenIncorrect         1066                       # Number of branches that were predicted not taken incorrectly (Count)
system.cpu.iew.branchMispredicts                 1286                       # Number of branch mispredicts detected at execute (Count)
system.cpu.iew.instsToCommit                250020047                       # Cumulative count of insts sent to commit (Count)
system.cpu.iew.writebackCount               250012221                       # Cumulative count of insts written-back (Count)
[...]
system.mem_ctrls.dram.perBankRdBursts::15        79581                       # Per bank write bursts (Count)
system.mem_ctrls.dram.perBankWrBursts::0        30021                       # Per bank write bursts (Count)
system.mem_ctrls.dram.perBankWrBursts::1        30023                       # Per bank write bursts (Count)
system.mem_ctrls.dram.perBankWrBursts::2        30440                       # Per bank write bursts (Count)
system.mem_ctrls.dram.perBankWrBursts::3        30358                       # Per bank write bursts (Count)
system.mem_ctrls.dram.perBankWrBursts::4        30085                       # Per bank write bursts (Count)
system.mem_ctrls.dram.perBankWrBursts::5        29950                       # Per bank write bursts (Count)
system.mem_ctrls.dram.perBankWrBursts::6        30016                       # Per bank write bursts (Count)
system.mem_ctrls.dram.perBankWrBursts::7        29794                       # Per bank write bursts (Count)
system.mem_ctrls.dram.perBankWrBursts::8        29672                       # Per bank write bursts (Count)
system.mem_ctrls.dram.perBankWrBursts::9        29564                       # Per bank write bursts (Count)
system.mem_ctrls.dram.perBankWrBursts::10        29702                       # Per bank write bursts (Count)
system.mem_ctrls.dram.perBankWrBursts::11        29529                       # Per bank write bursts (Count)
system.mem_ctrls.dram.perBankWrBursts::12        29743                       # Per bank write bursts (Count)
system.mem_ctrls.dram.perBankWrBursts::13        29923                       # Per bank write bursts (Count)
system.mem_ctrls.dram.perBankWrBursts::14        30379                       # Per bank write bursts (Count)
system.mem_ctrls.dram.perBankWrBursts::15        29952                       # Per bank write bursts (Count)
system.mem_ctrls.dram.totQLat             23679349518                       # Total ticks spent queuing (Tick)
system.mem_ctrls.dram.totBusLat            6351535000                       # Total ticks spent in databus transfers (Tick)
system.mem_ctrls.dram.totMemAccLat        47497605768                       # Total ticks spent from burst creation until serviced by the DRAM (Tick)
system.mem_ctrls.dram.avgQLat                18640.65                       # Average queueing delay per DRAM burst ((Tick/Count))
system.mem_ctrls.dram.avgBusLat               5000.00                       # Average bus latency per DRAM burst ((Tick/Count))
system.mem_ctrls.dram.avgMemAccLat           37390.65                       # Average memory access latency per DRAM burst ((Tick/Count))
system.mem_ctrls.dram.readRowHits              794362                       # Number of row buffer hits during reads (Count)
system.mem_ctrls.dram.writeRowHits             300278                       # Number of row buffer hits during writes (Count)
system.mem_ctrls.dram.readRowHitRate            62.53                       # Row buffer hit rate for reads (Ratio)
system.mem_ctrls.dram.writeRowHitRate           62.67                       # Row buffer hit rate for writes (Ratio)
system.mem_ctrls.dram.bytesPerActivate::samples       654811                       # Bytes accessed per row activation (Byte)
system.mem_ctrls.dram.bytesPerActivate::mean   170.986010                       # Bytes accessed per row activation (Byte)
system.mem_ctrls.dram.bytesPerActivate::gmean    99.011582                       # Bytes accessed per row activation (Byte)
system.mem_ctrls.dram.bytesPerActivate::stdev   252.575537                       # Bytes accessed per row activation (Byte)
system.mem_ctrls.dram.bytesPerActivate::0-127       492245     75.17%     75.17% # Bytes accessed per row activation (Byte)
system.mem_ctrls.dram.bytesPerActivate::128-255        55958      8.55%     83.72% # Bytes accessed per row activation (Byte)
system.mem_ctrls.dram.bytesPerActivate::256-383        21699      3.31%     87.03% # Bytes accessed per row activation (Byte)
system.mem_ctrls.dram.bytesPerActivate::384-511        13732      2.10%     89.13% # Bytes accessed per row activation (Byte)
system.mem_ctrls.dram.bytesPerActivate::512-639        10621      1.62%     90.75% # Bytes accessed per row activation (Byte)
system.mem_ctrls.dram.bytesPerActivate::640-767        10852      1.66%     92.41% # Bytes accessed per row activation (Byte)
system.mem_ctrls.dram.bytesPerActivate::768-895        13762      2.10%     94.51% # Bytes accessed per row activation (Byte)
system.mem_ctrls.dram.bytesPerActivate::896-1023         6700      1.02%     95.53% # Bytes accessed per row activation (Byte)
system.mem_ctrls.dram.bytesPerActivate::1024-1151        29242      4.47%    100.00% # Bytes accessed per row activation (Byte)
system.mem_ctrls.dram.bytesPerActivate::total       654811                       # Bytes accessed per row activation (Byte)
system.mem_ctrls.dram.bytesRead              81299648                       # Total bytes read (Byte)
system.mem_ctrls.dram.bytesWritten           30665664                       # Total bytes written (Byte)
system.mem_ctrls.dram.avgRdBW              540.243406                       # Average DRAM read bandwidth in MiBytes/s ((Byte/Second))
system.mem_ctrls.dram.avgWrBW              203.776070                       # Average DRAM write bandwidth in MiBytes/s ((Byte/Second))
system.mem_ctrls.dram.peakBW                 12800.00                       # Theoretical peak bandwidth in MiByte/s ((Byte/Second))
system.mem_ctrls.dram.busUtil                    5.81                       # Data bus utilization in percentage (Ratio)
system.mem_ctrls.dram.busUtilRead                4.22                       # Data bus utilization in percentage for reads (Ratio)
system.mem_ctrls.dram.busUtilWrite               1.59                       # Data bus utilization in percentage for writes (Ratio)
system.mem_ctrls.dram.pageHitRate               62.57                       # Row buffer hit rate, read and write combined (Ratio)
system.mem_ctrls.dram.power_state.pwrStateResidencyTicks::UNDEFINED 150487071291                       # Cumulative time (in ticks) in various power states (Tick)
system.mem_ctrls.dram.rank0.actEnergy      2339835120                       # Energy for activate commands per rank (pJ) (Joule)
system.mem_ctrls.dram.rank0.preEnergy      1243644270                       # Energy for precharge commands per rank (pJ) (Joule)
system.mem_ctrls.dram.rank0.readEnergy     4530872640                       # Energy for read commands per rank (pJ) (Joule)
system.mem_ctrls.dram.rank0.writeEnergy    1256386140                       # Energy for write commands per rank (pJ) (Joule)
system.mem_ctrls.dram.rank0.refreshEnergy 11879147280.000002                       # Energy for refresh commands per rank (pJ) (Joule)
system.mem_ctrls.dram.rank0.actBackEnergy  45245933100                       # Energy for active background per rank (pJ) (Joule)
system.mem_ctrls.dram.rank0.preBackEnergy  19685197440                       # Energy for precharge background per rank (pJ) (Joule)
system.mem_ctrls.dram.rank0.actPowerDownEnergy            0                       # Energy for active power-down per rank (pJ) (Joule)
system.mem_ctrls.dram.rank0.prePowerDownEnergy            0                       # Energy for precharge power-down per rank (pJ) (Joule)
system.mem_ctrls.dram.rank0.selfRefreshEnergy            0                       # Energy for self refresh per rank (pJ) (Joule)
system.mem_ctrls.dram.rank0.totalEnergy   86181015990                       # Total energy per rank (pJ) (Joule)
system.mem_ctrls.dram.rank0.averagePower   572.680532                       # Core power per rank (mW) (Watt)
system.mem_ctrls.dram.rank0.totalIdleTime            0                       # Total Idle time Per DRAM Rank (Tick)
system.mem_ctrls.dram.rank0.pwrStateTime::IDLE  50640719554                       # Time in different power states (Tick)
system.mem_ctrls.dram.rank0.pwrStateTime::REF   5025020000                       # Time in different power states (Tick)
system.mem_ctrls.dram.rank0.pwrStateTime::SREF            0                       # Time in different power states (Tick)
system.mem_ctrls.dram.rank0.pwrStateTime::PRE_PDN            0                       # Time in different power states (Tick)
system.mem_ctrls.dram.rank0.pwrStateTime::ACT  94821331737                       # Time in different power states (Tick)
system.mem_ctrls.dram.rank0.pwrStateTime::ACT_PDN            0                       # Time in different power states (Tick)
system.mem_ctrls.dram.rank1.actEnergy      2335565400                       # Energy for activate commands per rank (pJ) (Joule)
system.mem_ctrls.dram.rank1.preEnergy      1241363475                       # Energy for precharge commands per rank (pJ) (Joule)
system.mem_ctrls.dram.rank1.readEnergy     4539119340                       # Energy for read commands per rank (pJ) (Joule)
system.mem_ctrls.dram.rank1.writeEnergy    1244782080                       # Energy for write commands per rank (pJ) (Joule)
system.mem_ctrls.dram.rank1.refreshEnergy 11879147280.000002                       # Energy for refresh commands per rank (pJ) (Joule)
system.mem_ctrls.dram.rank1.actBackEnergy  45276470280                       # Energy for active background per rank (pJ) (Joule)
system.mem_ctrls.dram.rank1.preBackEnergy  19659481920                       # Energy for precharge background per rank (pJ) (Joule)
system.mem_ctrls.dram.rank1.actPowerDownEnergy            0                       # Energy for active power-down per rank (pJ) (Joule)
system.mem_ctrls.dram.rank1.prePowerDownEnergy            0                       # Energy for precharge power-down per rank (pJ) (Joule)
system.mem_ctrls.dram.rank1.selfRefreshEnergy            0                       # Energy for self refresh per rank (pJ) (Joule)
system.mem_ctrls.dram.rank1.totalEnergy   86175929775                       # Total energy per rank (pJ) (Joule)
system.mem_ctrls.dram.rank1.averagePower   572.646733                       # Core power per rank (mW) (Watt)
system.mem_ctrls.dram.rank1.totalIdleTime            0                       # Total Idle time Per DRAM Rank (Tick)
system.mem_ctrls.dram.rank1.pwrStateTime::IDLE  50575104107                       # Time in different power states (Tick)
system.mem_ctrls.dram.rank1.pwrStateTime::REF   5025020000                       # Time in different power states (Tick)
system.mem_ctrls.dram.rank1.pwrStateTime::SREF            0                       # Time in different power states (Tick)
system.mem_ctrls.dram.rank1.pwrStateTime::PRE_PDN            0                       # Time in different power states (Tick)
system.mem_ctrls.dram.rank1.pwrStateTime::ACT  94886947184                       # Time in different power states (Tick)
system.mem_ctrls.dram.rank1.pwrStateTime::ACT_PDN            0                       # Time in different power states (Tick)
system.mem_ctrls.power_state.pwrStateResidencyTicks::UNDEFINED 150487071291                       # Cumulative time (in ticks) in various power states (Tick)
system.membus.transDist::ReadResp              742839                       # Transaction distribution (Count)
system.membus.transDist::WritebackDirty        479174                       # Transaction distribution (Count)
system.membus.transDist::CleanEvict            693005                       # Transaction distribution (Count)
system.membus.transDist::ReadExReq             528240                       # Transaction distribution (Count)
system.membus.transDist::ReadExResp            528240                       # Transaction distribution (Count)
system.membus.transDist::ReadSharedReq         742839                       # Transaction distribution (Count)
system.membus.transDist::InvalidateReq              3                       # Transaction distribution (Count)
system.membus.pktCount_system.l3.mem_side_port::system.mem_ctrls.port      3714340                       # Packet count per connected requestor and responder (Count)
system.membus.pktCount::total                 3714340                       # Packet count per connected requestor and responder (Count)
system.membus.pktSize_system.l3.mem_side_port::system.mem_ctrls.port    112016192                       # Cumulative packet size per connected requestor and responder (Byte)
system.membus.pktSize::total                112016192                       # Cumulative packet size per connected requestor and responder (Byte)
system.membus.snoops                                0                       # Total snoops (Count)
system.membus.snoopTraffic                          0                       # Total snoop traffic (Byte)
system.membus.snoopFanout::samples            1271082                       # Request fanout histogram (Count)
system.membus.snoopFanout::mean                     0                       # Request fanout histogram (Count)
system.membus.snoopFanout::stdev                    0                       # Request fanout histogram (Count)
system.membus.snoopFanout::underflows               0      0.00%      0.00% # Request fanout histogram (Count)
system.membus.snoopFanout::0                  1271082    100.00%    100.00% # Request fanout histogram (Count)
system.membus.snoopFanout::1                        0      0.00%    100.00% # Request fanout histogram (Count)
system.membus.snoopFanout::overflows                0      0.00%    100.00% # Request fanout histogram (Count)
system.membus.snoopFanout::min_value                0                       # Request fanout histogram (Count)
system.membus.snoopFanout::max_value                0                       # Request fanout histogram (Count)
system.membus.snoopFanout::total              1271082                       # Request fanout histogram (Count)
system.membus.power_state.pwrStateResidencyTicks::UNDEFINED 150487071291                       # Cumulative time (in ticks) in various power states (Tick)
system.membus.reqLayer0.occupancy          5402983105                       # Layer occupancy (ticks) (Tick)
system.membus.reqLayer0.utilization               0.0                       # Layer utilization (Ratio)
system.membus.respLayer1.occupancy         6851105231                       # Layer occupancy (ticks) (Tick)
system.membus.respLayer1.utilization              0.0                       # Layer utilization (Ratio)
system.membus.snoop_filter.totRequests        2443261                       # Total number of requests made to the snoop filter. (Count)
system.membus.snoop_filter.hitSingleRequests      1172179                       # Number of requests hitting in the snoop filter with a single holder of the requested data. (Count)
system.membus.snoop_filter.hitMultiRequests            0                       # Number of requests hitting in the snoop filter with multiple (>1) holders of the requested data. (Count)
system.membus.snoop_filter.totSnoops                0                       # Total number of snoops made to the snoop filter. (Count)
system.membus.snoop_filter.hitSingleSnoops            0                       # Number of snoops hitting in the snoop filter with a single holder of the requested data. (Count)
system.membus.snoop_filter.hitMultiSnoops            0                       # Number of snoops hitting in the snoop filter with multiple (>1) holders of the requested data. (Count)
system.tol3bus.transDist::ReadResp             783276                       # Transaction distribution (Count)
system.tol3bus.transDist::WritebackDirty      1031960                       # Transaction distribution (Count)
system.tol3bus.transDist::CleanEvict          1424506                       # Transaction distribution (Count)
system.tol3bus.transDist::ReadExReq            528244                       # Transaction distribution (Count)
system.tol3bus.transDist::ReadExResp           528244                       # Transaction distribution (Count)
system.tol3bus.transDist::ReadSharedReq        783276                       # Transaction distribution (Count)
system.tol3bus.transDist::InvalidateReq             3                       # Transaction distribution (Count)
system.tol3bus.transDist::InvalidateResp            3                       # Transaction distribution (Count)
system.tol3bus.pktCount_system.cpu.l2cache.mem_side_port::system.l3.cpu_side_port      3901471                       # Packet count per connected requestor and responder (Count)
system.tol3bus.pktSize_system.cpu.l2cache.mem_side_port::system.l3.cpu_side_port    119315584                       # Cumulative packet size per connected requestor and responder (Byte)
system.tol3bus.snoops                         1178041                       # Total snoops (Count)
system.tol3bus.snoopTraffic                  30667136                       # Total snoop traffic (Byte)
system.tol3bus.snoopFanout::samples           2489564                       # Request fanout histogram (Count)
system.tol3bus.snoopFanout::mean             0.003429                       # Request fanout histogram (Count)
system.tol3bus.snoopFanout::stdev            0.058455                       # Request fanout histogram (Count)
system.tol3bus.snoopFanout::underflows              0      0.00%      0.00% # Request fanout histogram (Count)
system.tol3bus.snoopFanout::0                 2481028     99.66%     99.66% # Request fanout histogram (Count)
system.tol3bus.snoopFanout::1                    8536      0.34%    100.00% # Request fanout histogram (Count)
system.tol3bus.snoopFanout::overflows               0      0.00%    100.00% # Request fanout histogram (Count)
system.tol3bus.snoopFanout::min_value               0                       # Request fanout histogram (Count)
system.tol3bus.snoopFanout::max_value               1                       # Request fanout histogram (Count)
system.tol3bus.snoopFanout::total             2489564                       # Request fanout histogram (Count)
system.tol3bus.power_state.pwrStateResidencyTicks::UNDEFINED 150487071291                       # Cumulative time (in ticks) in various power states (Tick)
system.tol3bus.reqLayer0.occupancy         1230608160                       # Layer occupancy (ticks) (Tick)
system.tol3bus.reqLayer0.utilization              0.0                       # Layer utilization (Ratio)
system.tol3bus.respLayer0.occupancy        1310209479                       # Layer occupancy (ticks) (Tick)
system.tol3bus.respLayer0.utilization             0.0                       # Layer utilization (Ratio)
system.tol3bus.snoop_filter.totRequests       2589948                       # Total number of requests made to the snoop filter. (Count)
system.tol3bus.snoop_filter.hitSingleRequests      1278425                       # Number of requests hitting in the snoop filter with a single holder of the requested data. (Count)
system.tol3bus.snoop_filter.hitMultiRequests            0                       # Number of requests hitting in the snoop filter with multiple (>1) holders of the requested data. (Count)
system.tol3bus.snoop_filter.totSnoops            8536                       # Total number of snoops made to the snoop filter. (Count)
system.tol3bus.snoop_filter.hitSingleSnoops         8536                       # Number of snoops hitting in the snoop filter with a single holder of the requested data. (Count)
system.tol3bus.snoop_filter.hitMultiSnoops            0                       # Number of snoops hitting in the snoop filter with multiple (>1) holders of the requested data. (Count)
system.voltage_domain.voltage                       1                       # Voltage in Volts (Volt)
system.workload.inst.arm                            0                       # number of arm instructions executed (Count)
system.workload.inst.quiesce                        0                       # number of quiesce instructions executed (Count)

---------- End Simulation Statistics   ----------
